13
Coordinates from ORCA-job opt E -33.289869275484
  C           1.88682803159367      1.41496852683451     -0.01075244506669
  C           0.66403376618103      2.29139354164027      0.28800068373568
  C          -0.55588226579473      1.41324525752875     -0.01753150477384
  C           0.00392016858570      0.02227376754011      0.05404143003785
  C           1.32858459289955      0.02317470229432      0.05770114101872
  H           2.29365141042134      1.60869955134179     -1.00719312401196
  H           2.70073781729057      1.58068104890798      0.69539320679095
  H           0.66489908710111      3.22379151290105     -0.27370869954279
  H           0.66082498937400      2.55136694961864      1.34674003150727
  H          -1.37394632453235      1.57784922717380      0.68405113223998
  H          -0.95729595408301      1.60633294129572     -1.01628996249842
  H          -0.61498726399943     -0.86491460191710      0.05740046004417
  H           1.94879828791482     -0.86307796764516      0.06434163415284
