13
Coordinates from ORCA-job opt E -195.006602699294
  C       1.887066      1.416024     -0.006601
  C       0.664001      2.293339      0.289395
  C      -0.556688      1.414176     -0.012521
  C       0.002142      0.022015      0.058376
  C       1.329534      0.024011      0.059293
  H       2.294372      1.602636     -1.003766
  H       2.700328      1.580894      0.699910
  H       0.664002      3.220892     -0.279651
  H       0.664018      2.563154      1.345612
  H      -1.377291      1.581298      0.685364
  H      -0.956581      1.599011     -1.013068
  H      -0.613643     -0.868027      0.047792
  H       1.948904     -0.863637      0.052059
13
Coordinates from ORCA-job opt E -195.006911162222
  C       1.893718      1.416242     -0.010409
  C       0.663888      2.296951      0.291430
  C      -0.563008      1.414576     -0.016440
  C      -0.000882      0.017204      0.056880
  C       1.332955      0.018617      0.059438
  H       2.299514      1.606675     -1.010998
  H       2.710709      1.582815      0.695652
  H       0.663966      3.230274     -0.272978
  H       0.662151      2.558865      1.351762
  H      -1.385754      1.581925      0.682764
  H      -0.961824      1.604135     -1.020088
  H      -0.618325     -0.872838      0.054815
  H       1.953058     -0.869654      0.060366
13
Coordinates from ORCA-job opt E -195.006938457292
  C       1.895139      1.416359     -0.013388
  C       0.663946      2.297442      0.292791
  C      -0.564274      1.414686     -0.019741
  C      -0.001542      0.016188      0.057002
  C       1.333774      0.017276      0.060166
  H       2.297181      1.609323     -1.014988
  H       2.713463      1.584272      0.690879
  H       0.664300      3.233529     -0.267103
  H       0.661213      2.551364      1.355065
  H      -1.387470      1.582384      0.678820
  H      -0.959749      1.606883     -1.024177
  H      -0.619825     -0.873178      0.060514
  H       1.954011     -0.870742      0.066355
13
Coordinates from ORCA-job opt E -195.006948477335
  C       1.895132      1.416463     -0.015772
  C       0.664006      2.297107      0.294064
  C      -0.564200      1.414781     -0.022403
  C      -0.001559      0.016247      0.057808
  C       1.333923      0.017155      0.061306
  H       2.293025      1.610852     -1.018559
  H       2.714851      1.585648      0.686414
  H       0.664615      3.235486     -0.261729
  H       0.660735      2.543877      1.357936
  H      -1.388228      1.583095      0.674866
  H      -0.955962      1.608365     -1.027790
  H      -0.620465     -0.872622      0.064921
  H       1.954294     -0.870668      0.071132
13
Coordinates from ORCA-job opt E -195.006934622494
  C       1.894612      1.416624     -0.017762
  C       0.664051      2.296525      0.295437
  C      -0.563656      1.414935     -0.024595
  C      -0.001398      0.016635      0.058993
  C       1.333879      0.017473      0.062717
  H       2.288102      1.611465     -1.022091
  H       2.716148      1.587126      0.681847
  H       0.664868      3.237220     -0.256228
  H       0.660559      2.536751      1.360770
  H      -1.389140      1.584151      0.670622
  H      -0.951484      1.608947     -1.031273
  H      -0.620772     -0.871877      0.068485
  H       1.954398     -0.870189      0.075271
13
Coordinates from ORCA-job opt E -195.006940307051
  C       1.894162      1.416796     -0.018677
  C       0.664049      2.296141      0.296392
  C      -0.563192      1.415095     -0.025573
  C      -0.001296      0.016909      0.059940
  C       1.333830      0.017772      0.063708
  H       2.284856      1.611164     -1.024208
  H       2.717199      1.588168      0.678909
  H       0.664929      3.238339     -0.252659
  H       0.660627      2.532926      1.362523
  H      -1.390100      1.585105      0.667726
  H      -0.948492      1.608679     -1.033311
  H      -0.620836     -0.871488      0.070128
  H       1.954430     -0.869821      0.077296
13
Coordinates from ORCA-job opt E -195.006942318436
  C       1.893674      1.417065     -0.019526
  C       0.664020      2.295741      0.297595
  C      -0.562683      1.415343     -0.026442
  C      -0.001250      0.017124      0.061105
  C       1.333821      0.018054      0.064885
  H       2.281168      1.610384     -1.026583
  H       2.718699      1.589503      0.675398
  H       0.664945      3.239746     -0.248369
  H       0.660779      2.529057      1.364562
  H      -1.391613      1.586445      0.664150
  H      -0.945027      1.608001     -1.035569
  H      -0.620873     -0.871203      0.071742
  H       1.954504     -0.869474      0.079245
13
Coordinates from ORCA-job opt E -195.006948667186
  C       1.893576      1.417194     -0.019660
  C       0.663996      2.295658      0.298013
  C      -0.562560      1.415453     -0.026539
  C      -0.001292      0.017104      0.061482
  C       1.333849      0.018063      0.065216
  H       2.280195      1.609930     -1.027218
  H       2.719326      1.589978      0.674309
  H       0.664887      3.240234     -0.247009
  H       0.660851      2.528298      1.365164
  H      -1.392321      1.586977      0.662947
  H      -0.944001      1.607606     -1.036169
  H      -0.620868     -0.871247      0.072118
  H       1.954530     -0.869464      0.079540
