9
Coordinates from ORCA-job opt E -117.709847352548
  C          -0.00076389346665      0.00011603950041      0.00315959312820
  C          -0.00331206655135      0.00070757941654      1.33574070811377
  H           0.92364422167498     -0.00154892000572     -0.56034532224678
  H          -0.92700076271562      0.00121660622381     -0.56099503333146
  H           0.94797899995517     -0.00042240880560      1.86145783144231
  C          -1.23752157128181      0.00308888158876      2.18550612189657
  H          -1.26468246546876     -0.87443116700290      2.83702513727839
  H          -2.13859241426957      0.00305812309284      1.57029319629950
  H          -1.26298004787639      0.88263126599185      2.83438376741949
