!B3LYP cc-pVTZ OPT
* xyz 0 1
 C                  1.27786800    0.21987300    0.00000400 
 C                  0.13407900   -0.45226600    0.00000300 
 H                  1.29878900    1.30342900   -0.00001600 
 H                  2.23356700   -0.28672700   -0.00001100 
 H                  0.16671100   -1.53813400   -0.00001200 
 C                 -1.23058900    0.16195500   -0.00000300 
 H                 -1.80381700   -0.15348000   -0.87590700 
 H                 -1.80373000   -0.15330000    0.87602600 
 H                 -1.17966500    1.25083900   -0.00010800
*