9
Coordinates from ORCA-job opt E -20.685768977406
  C       1.277868      0.219873      0.000004
  C       0.134079     -0.452266      0.000003
  H       1.298789      1.303429     -0.000016
  H       2.233567     -0.286727     -0.000011
  H       0.166711     -1.538134     -0.000012
  C      -1.230589      0.161955     -0.000003
  H      -1.803817     -0.153480     -0.875907
  H      -1.803730     -0.153300      0.876026
  H      -1.179665      1.250839     -0.000108
9
Coordinates from ORCA-job opt E -20.685838470650
  C       1.271621      0.219810     -0.000010
  C       0.131754     -0.452663     -0.000006
  H       1.289557      1.303484     -0.000023
  H       2.227504     -0.286779     -0.000001
  H       0.165445     -1.538001      0.000005
  C      -1.226904      0.161938     -0.000002
  H      -1.796484     -0.152425     -0.874973
  H      -1.796399     -0.152268      0.875082
  H      -1.172882      1.249092     -0.000096
9
Coordinates from ORCA-job opt E -20.685844693058
  C       1.270187      0.219861     -0.000013
  C       0.131120     -0.453196     -0.000000
  H       1.286493      1.303551     -0.000033
  H       2.226123     -0.286773     -0.000006
  H       0.165746     -1.538541      0.000018
  C      -1.226298      0.162052     -0.000000
  H      -1.794809     -0.151982     -0.875696
  H      -1.794741     -0.151844      0.875790
  H      -1.170608      1.249061     -0.000084
9
Coordinates from ORCA-job opt E -20.685844229037
  C       1.269830      0.219891     -0.000017
  C       0.130913     -0.453626      0.000003
  H       1.285017      1.303572     -0.000044
  H       2.225725     -0.286804     -0.000006
  H       0.166297     -1.538941      0.000029
  C      -1.226369      0.162135      0.000001
  H      -1.794337     -0.151623     -0.876167
  H      -1.794281     -0.151504      0.876249
  H      -1.169582      1.249090     -0.000072
9
Coordinates from ORCA-job opt E -20.685845241640
  C       1.269857      0.219905     -0.000019
  C       0.130902     -0.453825      0.000008
  H       1.284487      1.303582     -0.000053
  H       2.225694     -0.286857     -0.000010
  H       0.166698     -1.539113      0.000039
  C      -1.226550      0.162158      0.000002
  H      -1.794355     -0.151428     -0.876336
  H      -1.794312     -0.151325      0.876404
  H      -1.169208      1.249092     -0.000060
