9
Coordinates from ORCA-job opt E -117.869696088861
  C       1.277868      0.219873      0.000004
  C       0.134079     -0.452266      0.000003
  H       1.298789      1.303429     -0.000016
  H       2.233567     -0.286727     -0.000011
  H       0.166711     -1.538134     -0.000012
  C      -1.230589      0.161955     -0.000003
  H      -1.803817     -0.153480     -0.875907
  H      -1.803730     -0.153300      0.876026
  H      -1.179665      1.250839     -0.000108
9
Coordinates from ORCA-job opt E -117.869727999940
  C       1.278120      0.219864     -0.000010
  C       0.134191     -0.452327     -0.000005
  H       1.299287      1.303705     -0.000027
  H       2.234080     -0.286854     -0.000002
  H       0.166754     -1.538476      0.000008
  C      -1.230955      0.162084     -0.000002
  H      -1.804094     -0.153603     -0.876180
  H      -1.804013     -0.153451      0.876286
  H      -1.180158      1.251247     -0.000092
