15
Coordinates from ORCA-job opt E -49.865090868385
  C       1.891035      1.385557     -0.000000
  C       0.668368      2.241114      0.330215
  C      -0.554298      1.385556     -0.000002
  C       0.000000      0.000000      0.000000
  C       1.336736     -0.000000     -0.000000
  H       2.300707      1.631191     -0.985068
  H       2.675046      1.510895      0.752414
  H       0.668367      3.188691     -0.218319
  H       0.668365      2.488363      1.399963
  H      -1.338310      1.510889      0.752411
  H      -0.963969      1.631187     -0.985072
  H      -0.615007     -0.889077     -0.028030
  H       1.951740     -0.889080     -0.028031
  O       0.983579      0.161669      3.303126
  H       0.686441      0.100135      2.371550
15
Coordinates from ORCA-job opt E -49.865683497595
  C       1.893713      1.386617      0.002080
  C       0.668621      2.248951      0.331798
  C      -0.556744      1.386803      0.001440
  C       0.003169     -0.004246      0.002144
  C       1.333617     -0.003921      0.001773
  H       2.305622      1.630062     -0.979783
  H       2.682333      1.510945      0.743626
  H       0.668471      3.193432     -0.210004
  H       0.668429      2.493267      1.394715
  H      -1.346425      1.511466      0.742456
  H      -0.969492      1.630254     -0.980026
  H      -0.611957     -0.894103     -0.028094
  H       1.948626     -0.893695     -0.028430
  O       0.983317      0.162100      3.299757
  H       0.687500      0.099157      2.371705
15
Coordinates from ORCA-job opt E -49.865858315146
  C       1.894619      1.387054      0.004751
  C       0.668746      2.254166      0.332205
  C      -0.557894      1.387445      0.003500
  C       0.005191     -0.006639      0.004410
  C       1.331386     -0.005942      0.003858
  H       2.309429      1.627374     -0.976322
  H       2.691108      1.511742      0.736698
  H       0.668536      3.198506     -0.207275
  H       0.669095      2.496552      1.393817
  H      -1.356442      1.513234      0.733825
  H      -0.974301      1.627636     -0.976870
  H      -0.610090     -0.896557     -0.029758
  H       1.947074     -0.895593     -0.029625
  O       0.983919      0.160815      3.299842
  H       0.688424      0.097298      2.372102
15
Coordinates from ORCA-job opt E -49.865912776875
  C       1.893905      1.387185      0.006717
  C       0.668707      2.255759      0.332184
  C      -0.557492      1.387652      0.005271
  C       0.005350     -0.006760      0.006359
  C       1.330954     -0.005824      0.005765
  H       2.310505      1.624494     -0.974853
  H       2.696086      1.513107      0.732905
  H       0.668487      3.200165     -0.207486
  H       0.669798      2.497407      1.394520
  H      -1.362422      1.515434      0.728963
  H      -0.975841      1.624686     -0.975567
  H      -0.610245     -0.896259     -0.031428
  H       1.947585     -0.894714     -0.030516
  O       0.984443      0.158950      3.300143
  H       0.688983      0.095807      2.372179
15
Coordinates from ORCA-job opt E -49.865943154343
  C       1.892244      1.387417      0.008524
  C       0.668538      2.256363      0.332281
  C      -0.556227      1.387855      0.007132
  C       0.004746     -0.006014      0.009035
  C       1.331128     -0.004863      0.008366
  H       2.310110      1.620778     -0.974161
  H       2.699669      1.515452      0.729422
  H       0.668306      3.200625     -0.208327
  H       0.670651      2.497530      1.395509
  H      -1.367146      1.518624      0.724545
  H      -0.975434      1.620792     -0.975078
  H      -0.611365     -0.894788     -0.033130
  H       1.949073     -0.892516     -0.031280
  O       0.984969      0.155999      3.300340
  H       0.689540      0.093837      2.371979
15
Coordinates from ORCA-job opt E -49.865952083896
  C       1.891289      1.387717      0.008789
  C       0.668373      2.256376      0.332457
  C      -0.555474      1.388054      0.007613
  C       0.004257     -0.005478      0.010726
  C       1.331353     -0.004279      0.009931
  H       2.308936      1.619040     -0.974703
  H       2.699913      1.517149      0.728298
  H       0.668103      3.200485     -0.208670
  H       0.671018      2.497464      1.395872
  H      -1.367910      1.520543      0.723194
  H      -0.973738      1.618911     -0.975742
  H      -0.612152     -0.893895     -0.033372
  H       1.949956     -0.891309     -0.031288
  O       0.985098      0.153868      3.300307
  H       0.689779      0.092444      2.371745
15
Coordinates from ORCA-job opt E -49.865960166772
  C       1.890357      1.388329      0.008628
  C       0.668115      2.256671      0.332635
  C      -0.554839      1.388495      0.007762
  C       0.003767     -0.004920      0.013335
  C       1.331496     -0.003698      0.012243
  H       2.307030      1.617034     -0.975993
  H       2.699608      1.519741      0.727113
  H       0.667761      3.200617     -0.208914
  H       0.671428      2.497691      1.396089
  H      -1.368326      1.523276      0.721709
  H      -0.970819      1.616668     -0.977316
  H      -0.612973     -0.892963     -0.032870
  H       1.950814     -0.890075     -0.030886
  O       0.985221      0.150278      3.300216
  H       0.690160      0.089947      2.371405
15
Coordinates from ORCA-job opt E -49.865969823597
  C       1.889542      1.389367      0.008117
  C       0.667739      2.257527      0.332618
  C      -0.554478      1.389314      0.007572
  C       0.003377     -0.004306      0.017350
  C       1.331451     -0.003040      0.015766
  H       2.304343      1.614562     -0.978087
  H       2.699241      1.523541      0.725487
  H       0.667205      3.201339     -0.209172
  H       0.671905      2.498435      1.396029
  H      -1.369046      1.527250      0.719497
  H      -0.966585      1.613920     -0.979959
  H      -0.613686     -0.891999     -0.031183
  H       1.951527     -0.888735     -0.029719
  O       0.985421      0.144304      3.299987
  H       0.690844      0.085607      2.370851
15
Coordinates from ORCA-job opt E -49.865980271998
  C       1.889139      1.390727      0.007375
  C       0.667341      2.258974      0.332165
  C      -0.554632      1.390447      0.006975
  C       0.003221     -0.003623      0.022269
  C       1.331187     -0.002276      0.020081
  H       2.301344      1.612182     -0.980644
  H       2.699280      1.527972      0.723473
  H       0.666566      3.202792     -0.209546
  H       0.672328      2.499702      1.395512
  H      -1.370445      1.531894      0.716500
  H      -0.961900      1.611213     -0.983316
  H      -0.614011     -0.891142     -0.027932
  H       1.951810     -0.887524     -0.027451
  O       0.985735      0.136204      3.299613
  H       0.691837      0.079548      2.370081
15
Coordinates from ORCA-job opt E -49.865989204400
  C       1.889250      1.392053      0.006639
  C       0.667071      2.260600      0.331190
  C      -0.555185      1.391607      0.006056
  C       0.003324     -0.002873      0.026632
  C       1.330844     -0.001405      0.023975
  H       2.298825      1.610773     -0.982939
  H       2.699913      1.531755      0.721506
  H       0.666077      3.204542     -0.210173
  H       0.672486      2.501145      1.394489
  H      -1.372228      1.535876      0.713334
  H      -0.958301      1.609514     -0.986421
  H      -0.613798     -0.890537     -0.023437
  H       1.951513     -0.886659     -0.024081
  O       0.986088      0.127662      3.299159
  H       0.692923      0.073036      2.369226
15
Coordinates from ORCA-job opt E -49.865999080139
  C       1.889626      1.393580      0.005745
  C       0.666892      2.262583      0.329546
  C      -0.555896      1.393015      0.004670
  C       0.003586     -0.001726      0.031023
  C       1.330523     -0.000088      0.028074
  H       2.296159      1.610032     -0.985460
  H       2.701201      1.535624      0.718970
  H       0.665687      3.206757     -0.211289
  H       0.672350      2.502919      1.392856
  H      -1.374550      1.539977      0.709355
  H      -0.955173      1.608495     -0.989755
  H      -0.613093     -0.889909     -0.016740
  H       1.950781     -0.885806     -0.018551
  O       0.986431      0.116894      3.298584
  H       0.694276      0.064741      2.368129
15
Coordinates from ORCA-job opt E -49.866012340181
  C       1.890030      1.395572      0.004465
  C       0.666801      2.265137      0.327051
  C      -0.556467      1.394888      0.002602
  C       0.003891      0.000153      0.035752
  C       1.330327      0.002008      0.032790
  H       2.292860      1.609888     -0.988673
  H       2.703228      1.540226      0.715217
  H       0.665420      3.209581     -0.213230
  H       0.671790      2.505217      1.390454
  H      -1.377378      1.544736      0.703985
  H      -0.952148      1.607991     -0.993717
  H      -0.611948     -0.888954     -0.006647
  H       1.949674     -0.884651     -0.009464
  O       0.986677      0.102020      3.297898
  H       0.696042      0.053277      2.366674
15
Coordinates from ORCA-job opt E -49.866029071777
  C       1.890049      1.398547      0.002362
  C       0.666722      2.268717      0.323451
  C      -0.556478      1.397680     -0.000501
  C       0.004080      0.003304      0.041676
  C       1.330378      0.005386      0.039097
  H       2.287981      1.609871     -0.993463
  H       2.706092      1.546974      0.709062
  H       0.665193      3.213389     -0.216468
  H       0.670639      2.508443      1.387054
  H      -1.380698      1.551435      0.696191
  H      -0.948253      1.607424     -0.999154
  H      -0.610511     -0.887155      0.008698
  H       1.948388     -0.882671      0.005410
  O       0.986683      0.079633      3.297083
  H       0.698535      0.036112      2.364659
15
Coordinates from ORCA-job opt E -49.866044175779
  C       1.889311      1.401620     -0.000026
  C       0.666611      2.272128      0.320162
  C      -0.555572      1.400536     -0.003560
  C       0.003945      0.006745      0.046652
  C       1.330720      0.008918      0.044818
  H       2.283272      1.609473     -0.998341
  H       2.708482      1.553951      0.702270
  H       0.665057      3.216692     -0.220045
  H       0.669239      2.511579      1.384002
  H      -1.382852      1.557963      0.688815
  H      -0.944727      1.606492     -1.004237
  H      -0.609668     -0.884715      0.023673
  H       1.947752     -0.880180      0.021215
  O       0.986320      0.056995      3.296724
  H       0.700909      0.018893      2.363035
15
Coordinates from ORCA-job opt E -49.866064021781
  C       1.888122      1.404008     -0.002053
  C       0.666398      2.274522      0.318091
  C      -0.554282      1.402711     -0.005687
  C       0.003575      0.009365      0.049748
  C       1.331095      0.011473      0.048642
  H       2.280234      1.608357     -1.001997
  H       2.709510      1.559432      0.697043
  H       0.664939      3.218639     -0.223038
  H       0.668099      2.513949      1.382050
  H      -1.383193      1.562689      0.684210
  H      -0.942258      1.605038     -1.007758
  H      -0.609967     -0.882176      0.033435
  H       1.948153     -0.877697      0.032790
  O       0.985786      0.040389      3.297159
  H       0.702589      0.006392      2.362524
15
Coordinates from ORCA-job opt E -49.866070535825
  C       1.886840      1.406625     -0.004082
  C       0.666009      2.277275      0.316046
  C      -0.553172      1.405066     -0.007640
  C       0.003235      0.011844      0.053564
  C       1.331301      0.013766      0.053013
  H       2.277452      1.606167     -1.005698
  H       2.710244      1.565761      0.691929
  H       0.664645      3.220696     -0.226426
  H       0.667076      2.516690      1.379953
  H      -1.383375      1.567972      0.680046
  H      -0.939298      1.602647     -1.011502
  H      -0.610901     -0.879289      0.041942
  H       1.949048     -0.874964      0.043310
  O       0.985284      0.023311      3.298127
  H       0.704412     -0.006476      2.362575
15
Coordinates from ORCA-job opt E -49.866074217213
  C       1.886572      1.407275     -0.004612
  C       0.665862      2.277988      0.315315
  C      -0.553057      1.405654     -0.008107
  C       0.003155      0.012368      0.053875
  C       1.331300      0.014195      0.053503
  H       2.277878      1.605249     -1.006239
  H       2.709873      1.566995      0.691355
  H       0.664705      3.220882     -0.228045
  H       0.666758      2.517780      1.379116
  H      -1.382540      1.568543      0.680352
  H      -0.939691      1.601839     -1.012005
  H      -0.611939     -0.878069      0.042367
  H       1.949939     -0.873854      0.044950
  O       0.985055      0.019569      3.299563
  H       0.704930     -0.009323      2.363769
15
Coordinates from ORCA-job opt E -49.866083567178
  C       1.886499      1.408491     -0.005443
  C       0.665587      2.279668      0.312749
  C      -0.553421      1.406838     -0.009117
  C       0.003214      0.013266      0.053564
  C       1.331147      0.014903      0.053593
  H       2.280600      1.603521     -1.006441
  H       2.708558      1.568585      0.691860
  H       0.665118      3.221102     -0.233041
  H       0.665995      2.521151      1.376064
  H      -1.380056      1.568459      0.682881
  H      -0.942961      1.600618     -1.012174
  H      -0.614679     -0.875224      0.041176
  H       1.952254     -0.871373      0.046780
  O       0.984564      0.012215      3.304516
  H       0.706381     -0.015131      2.368190
15
Coordinates from ORCA-job opt E -49.866088870817
  C       1.886701      1.409540     -0.005886
  C       0.665438      2.281397      0.309826
  C      -0.553930      1.407914     -0.010081
  C       0.003379      0.014218      0.054132
  C       1.330987      0.015808      0.054422
  H       2.282200      1.602755     -1.006645
  H       2.707887      1.570147      0.692295
  H       0.665388      3.221828     -0.237643
  H       0.665399      2.524606      1.372678
  H      -1.379028      1.569213      0.683799
  H      -0.945368      1.600136     -1.012582
  H      -0.615908     -0.873369      0.041994
  H       1.953252     -0.869727      0.049060
  O       0.984346      0.004183      3.308330
  H       0.708056     -0.021560      2.371459
15
Coordinates from ORCA-job opt E -49.866093909275
  C       1.887143      1.411430     -0.006429
  C       0.665228      2.284740      0.303882
  C      -0.554833      1.409842     -0.011756
  C       0.003611      0.016231      0.055854
  C       1.330716      0.017850      0.056589
  H       2.284541      1.601934     -1.006930
  H       2.706922      1.573287      0.693110
  H       0.665720      3.223371     -0.246588
  H       0.664405      2.531728      1.365783
  H      -1.378080      1.571546      0.684272
  H      -0.949276      1.599598     -1.013430
  H      -0.617004     -0.870527      0.044909
  H       1.953976     -0.867089      0.053523
  O       0.984096     -0.012146      3.315180
  H       0.711637     -0.034704      2.377191
15
Coordinates from ORCA-job opt E -49.866100784288
  C       1.887493      1.412742     -0.006542
  C       0.665082      2.287343      0.298771
  C      -0.555512      1.411151     -0.012746
  C       0.003607      0.017956      0.057246
  C       1.330515      0.019697      0.058319
  H       2.286503      1.601754     -1.006694
  H       2.705829      1.575658      0.694428
  H       0.665833      3.224247     -0.254572
  H       0.663798      2.538442      1.359699
  H      -1.377665      1.573841      0.684442
  H      -0.952258      1.599450     -1.013771
  H      -0.617022     -0.868830      0.047000
  H       1.953650     -0.865347      0.055893
  O       0.983953     -0.025438      3.321349
  H       0.714995     -0.045577      2.382335
15
Coordinates from ORCA-job opt E -49.866108341178
  C       1.887556      1.414869     -0.006890
  C       0.664755      2.291245      0.291719
  C      -0.556089      1.413158     -0.013981
  C       0.003250      0.020790      0.060023
  C       1.330255      0.022709      0.061562
  H       2.288651      1.601326     -1.006732
  H       2.704118      1.580188      0.695622
  H       0.665506      3.225276     -0.266450
  H       0.663093      2.549045      1.351075
  H      -1.377586      1.578750      0.683391
  H      -0.954867      1.598810     -1.014776
  H      -0.616224     -0.866808      0.051111
  H       1.952339     -0.863104      0.059552
  O       0.983695     -0.046440      3.330281
  H       0.720348     -0.062722      2.389651
15
Coordinates from ORCA-job opt E -49.866113853180
  C       1.887403      1.416064     -0.007055
  C       0.664462      2.293425      0.287880
  C      -0.556323      1.414215     -0.014285
  C       0.002721      0.022518      0.061228
  C       1.330043      0.024571      0.063014
  H       2.290559      1.601217     -1.006316
  H       2.702500      1.582834      0.696862
  H       0.664961      3.224944     -0.274500
  H       0.662921      2.556675      1.345933
  H      -1.377505      1.582018      0.682980
  H      -0.956081      1.598400     -1.015051
  H      -0.615159     -0.866122      0.052510
  H       1.950812     -0.862088      0.059945
  O       0.983412     -0.058651      3.336874
  H       0.724074     -0.072931      2.395138
15
Coordinates from ORCA-job opt E -49.866116902403
  C       1.887130      1.416667     -0.007190
  C       0.664195      2.294397      0.286682
  C      -0.556378      1.414712     -0.014070
  C       0.002242      0.023286      0.061367
  C       1.329839      0.025403      0.063164
  H       2.292009      1.601223     -1.005826
  H       2.701282      1.584065      0.697711
  H       0.664370      3.223908     -0.279079
  H       0.663091      2.561487      1.343769
  H      -1.377460      1.583827      0.682945
  H      -0.956201      1.598106     -1.015010
  H      -0.614231     -0.866280      0.052293
  H       1.949562     -0.861949      0.058603
  O       0.983060     -0.064050      3.341098
  H       0.726289     -0.077711      2.398700
15
Coordinates from ORCA-job opt E -49.866118181528
  C       1.887019      1.416652     -0.007135
  C       0.664060      2.294318      0.287272
  C      -0.556450      1.414688     -0.013592
  C       0.002042      0.023134      0.060487
  C       1.329686      0.025251      0.062108
  H       2.293105      1.601543     -1.005184
  H       2.700667      1.583583      0.698466
  H       0.664065      3.222698     -0.280392
  H       0.663400      2.563190      1.343865
  H      -1.377366      1.583661      0.683587
  H      -0.956264      1.598234     -1.014492
  H      -0.613785     -0.866856      0.050797
  H       1.948981     -0.862387      0.056307
  O       0.982717     -0.063181      3.342836
  H       0.726924     -0.077437      2.400226
15
Coordinates from ORCA-job opt E -49.866119324087
  C       1.887034      1.416297     -0.006875
  C       0.664024      2.293743      0.288505
  C      -0.556560      1.414380     -0.013000
  C       0.002047      0.022529      0.059283
  C       1.329588      0.024607      0.060584
  H       2.293814      1.602099     -1.004428
  H       2.700432      1.582191      0.699257
  H       0.663997      3.221624     -0.279997
  H       0.663752      2.563187      1.344880
  H      -1.377299      1.582465      0.684537
  H      -0.956369      1.598627     -1.013736
  H      -0.613626     -0.867563      0.048944
  H       1.948820     -0.863088      0.053792
  O       0.982392     -0.059291      3.343003
  H       0.726754     -0.074718      2.400408
15
Coordinates from ORCA-job opt E -49.866121323466
  C       1.887066      1.416024     -0.006601
  C       0.664001      2.293339      0.289395
  C      -0.556688      1.414176     -0.012521
  C       0.002142      0.022015      0.058376
  C       1.329534      0.024011      0.059293
  H       2.294372      1.602636     -1.003766
  H       2.700328      1.580894      0.699910
  H       0.664002      3.220892     -0.279651
  H       0.664018      2.563154      1.345612
  H      -1.377291      1.581298      0.685364
  H      -0.956581      1.599011     -1.013068
  H      -0.613643     -0.868027      0.047792
  H       1.948904     -0.863637      0.052059
  O       0.981952     -0.056119      3.342804
  H       0.726682     -0.072575      2.400159
