15
Coordinates from ORCA-job path_back E -270.662932747988
  C       1.910798      1.419309     -0.047779
  C       0.698696      2.303958      0.310281
  C      -0.544840      1.439357      0.005838
  C       0.004123      0.038328      0.028185
  C       1.341288      0.031680      0.010595
  H       2.279240      1.624420     -1.056341
  H       2.748241      1.550511      0.636089
  H       0.694082      3.249650     -0.231659
  H       0.723891      2.521258      1.376455
  H      -1.345448      1.588571      0.732725
  H      -0.962617      1.657356     -0.984220
  H      -0.618709     -0.848247      0.005297
  H       1.953958     -0.858999     -0.023599
  O       1.187584     -0.031655      2.259358
  H       0.743163     -0.854792      2.371831
15
Coordinates from ORCA-job path_back E -270.663697073014
  C       1.912965      1.421808     -0.051140
  C       0.699052      2.306092      0.307539
  C      -0.544734      1.439759      0.007107
  C       0.004809      0.038590      0.027964
  C       1.346091      0.030729      0.009930
  H       2.282247      1.626233     -1.062706
  H       2.749866      1.555406      0.634787
  H       0.691969      3.251512     -0.235568
  H       0.726009      2.524859      1.374473
  H      -1.344097      1.588795      0.735705
  H      -0.966212      1.657159     -0.981616
  H      -0.618372     -0.847382      0.006127
  H       1.958719     -0.859335     -0.028239
  O       1.185508     -0.028767      2.268837
  H       0.729629     -0.874752      2.379857
15
Coordinates from ORCA-job path_back E -270.663800834104
  C       1.913871      1.423038     -0.053585
  C       0.699630      2.306512      0.306307
  C      -0.543806      1.439211      0.008194
  C       0.006419      0.038567      0.026204
  C       1.348494      0.030168      0.007057
  H       2.283389      1.627610     -1.065330
  H       2.749853      1.557179      0.633650
  H       0.690895      3.251878     -0.236864
  H       0.728172      2.525368      1.373340
  H      -1.341811      1.586880      0.738612
  H      -0.968437      1.657164     -0.979109
  H      -0.616809     -0.847325      0.003900
  H       1.960979     -0.859634     -0.036433
  O       1.179979     -0.029155      2.280314
  H       0.722634     -0.876755      2.386801
15
Coordinates from ORCA-job path_back E -270.664201128001
  C       1.918944      1.428977     -0.067418
  C       0.703335      2.307241      0.300224
  C      -0.538521      1.435022      0.015096
  C       0.017473      0.038076      0.016862
  C       1.360286      0.029000     -0.013461
  H       2.290406      1.636472     -1.078046
  H       2.750212      1.564045      0.626383
  H       0.685743      3.252273     -0.243092
  H       0.741051      2.526987      1.367213
  H      -1.327953      1.574396      0.756695
  H      -0.980985      1.655949     -0.963888
  H      -0.605173     -0.848553     -0.007793
  H       1.972605     -0.859038     -0.085398
  O       1.143967     -0.029308      2.345498
  H       0.682060     -0.880833      2.424181
15
Coordinates from ORCA-job path_back E -270.664386546590
  C       1.922888      1.431933     -0.076689
  C       0.706119      2.306343      0.297073
  C      -0.535732      1.431272      0.020440
  C       0.025269      0.036454      0.011202
  C       1.367143      0.029852     -0.030662
  H       2.296262      1.644465     -1.085204
  H       2.752229      1.565557      0.619972
  H       0.683054      3.251219     -0.246278
  H       0.749879      2.527504      1.363565
  H      -1.318249      1.565272      0.770422
  H      -0.989592      1.654455     -0.952748
  H      -0.596004     -0.851489     -0.014516
  H       1.980516     -0.856584     -0.118254
  O       1.115644     -0.026747      2.388029
  H       0.654025     -0.878800      2.446705
15
Coordinates from ORCA-job path_back E -270.664524242740
  C       1.927506      1.433996     -0.086687
  C       0.709366      2.304176      0.294856
  C      -0.533301      1.426279      0.027007
  C       0.033254      0.032760      0.005614
  C       1.373730      0.031988     -0.051887
  H       2.302996      1.656026     -1.091916
  H       2.756885      1.564015      0.610654
  H       0.680648      3.248844     -0.248715
  H       0.759329      2.527863      1.360421
  H      -1.306959      1.555026      0.786963
  H      -0.998398      1.652716     -0.939845
  H      -0.585405     -0.857221     -0.020801
  H       1.989727     -0.852317     -0.151271
  O       1.081001     -0.020432      2.431232
  H       0.623071     -0.873015      2.467431
15
Coordinates from ORCA-job path_back E -270.664583053988
  C       1.929860      1.434236     -0.091956
  C       0.711275      2.302296      0.294858
  C      -0.531960      1.422926      0.031142
  C       0.037002      0.029210      0.002869
  C       1.376527      0.033482     -0.064570
  H       2.305930      1.664781     -1.094984
  H       2.761344      1.560954      0.603513
  H       0.679456      3.246728     -0.249097
  H       0.764255      2.527898      1.359760
  H      -1.300014      1.549124      0.797027
  H      -1.002030      1.652103     -0.932409
  H      -0.579433     -0.862208     -0.023669
  H       1.994927     -0.849621     -0.164823
  O       1.059956     -0.013505      2.450772
  H       0.606358     -0.867701      2.474624
15
Coordinates from ORCA-job path_back E -270.664616909235
  C       1.930962      1.433628     -0.094893
  C       0.712538      2.300566      0.296114
  C      -0.530932      1.420486      0.034070
  C       0.038744      0.026094      0.001315
  C       1.377689      0.034034     -0.072518
  H       2.306463      1.671841     -1.096504
  H       2.765406      1.557559      0.597637
  H       0.678671      3.244802     -0.248145
  H       0.767091      2.527244      1.360641
  H      -1.295382      1.545003      0.803684
  H      -1.003070      1.652338     -0.927666
  H      -0.575988     -0.866306     -0.025090
  H       1.998047     -0.848552     -0.167535
  O       1.045996     -0.005562      2.457700
  H       0.597214     -0.862471      2.474246
15
Coordinates from ORCA-job path_back E -270.664630496534
  C       1.931073      1.432766     -0.095622
  C       0.713100      2.299351      0.297789
  C      -0.530388      1.419383      0.035372
  C       0.038914      0.024545      0.000842
  C       1.377865      0.033524     -0.074945
  H       2.305224      1.675217     -1.096903
  H       2.767705      1.555387      0.594601
  H       0.678391      3.243639     -0.246336
  H       0.768060      2.525695      1.362346
  H      -1.293809      1.542836      0.806113
  H      -1.002555      1.653080     -0.925871
  H      -0.575254     -0.868150     -0.025306
  H       1.999051     -0.849184     -0.162893
  O       1.040261      0.001134      2.454869
  H       0.595810     -0.858519      2.468998
15
Coordinates from ORCA-job path_back E -270.664641406793
  C       1.930814      1.431825     -0.095416
  C       0.713413      2.298271      0.299735
  C      -0.530062      1.418925      0.035863
  C       0.038517      0.023974      0.000949
  C       1.377840      0.032376     -0.074498
  H       2.302926      1.676271     -1.097096
  H       2.768963      1.554093      0.593066
  H       0.678497      3.242967     -0.243642
  H       0.768357      2.522999      1.364620
  H      -1.293882      1.541374      0.806346
  H      -1.001507      1.653999     -0.925441
  H      -0.575809     -0.868604     -0.024864
  H       1.999149     -0.850770     -0.155132
  O       1.037663      0.007927      2.447563
  H       0.598570     -0.854923      2.461004
15
Coordinates from ORCA-job path_back E -270.664650794512
  C       1.930564      1.431065     -0.095038
  C       0.713683      2.297326      0.301572
  C      -0.529803      1.418798      0.035891
  C       0.038183      0.024066      0.001489
  C       1.377986      0.031066     -0.072633
  H       2.300216      1.675532     -1.097644
  H       2.769460      1.553715      0.592427
  H       0.678952      3.242837     -0.240366
  H       0.768587      2.519413      1.366992
  H      -1.294757      1.540322      0.805404
  H      -1.000486      1.654660     -0.925667
  H      -0.576711     -0.868181     -0.023993
  H       1.998960     -0.852578     -0.148094
  O       1.035290      0.014665      2.440080
  H       0.603326     -0.852002      2.452637
15
Coordinates from ORCA-job path_back E -270.664664344192
  C       1.930560      1.430495     -0.095025
  C       0.714140      2.296312      0.303421
  C      -0.529387      1.418656      0.035867
  C       0.038269      0.024329      0.002459
  C       1.378512      0.029766     -0.070363
  H       2.297081      1.673717     -1.099020
  H       2.769833      1.554012      0.591714
  H       0.679740      3.243148     -0.236193
  H       0.769271      2.514693      1.369560
  H      -1.295723      1.539340      0.804162
  H      -0.999497      1.654847     -0.925966
  H      -0.577325     -0.867524     -0.022689
  H       1.998965     -0.854309     -0.143292
  O       1.029767      0.022761      2.434423
  H       0.609242     -0.849537      2.444000
15
Coordinates from ORCA-job path_back E -270.664677202637
  C       1.930965      1.430102     -0.095662
  C       0.714946      2.295107      0.305404
  C      -0.528641      1.418298      0.036085
  C       0.038943      0.024376      0.004104
  C       1.379488      0.028622     -0.068062
  H       2.293371      1.671113     -1.101558
  H       2.770675      1.554909      0.590138
  H       0.680909      3.243874     -0.230811
  H       0.770736      2.508672      1.372436
  H      -1.296362      1.538532      0.803088
  H      -0.998238      1.654258     -0.926113
  H      -0.577265     -0.867122     -0.020686
  H       1.999422     -0.855699     -0.141950
  O       1.017706      0.033487      2.431926
  H       0.616796     -0.847824      2.434718
15
Coordinates from ORCA-job path_back E -270.664696095339
  C       1.931695      1.429882     -0.096712
  C       0.715969      2.293976      0.307198
  C      -0.527679      1.417838      0.036572
  C       0.039891      0.023913      0.006539
  C       1.380488      0.028045     -0.065959
  H       2.289601      1.668272     -1.104726
  H       2.772367      1.556200      0.587448
  H       0.682308      3.244855     -0.225283
  H       0.772625      2.502869      1.375073
  H      -1.296517      1.538808      0.802317
  H      -0.996233      1.652777     -0.926401
  H      -0.576550     -0.867398     -0.017867
  H       2.000147     -0.856162     -0.144881
  O       0.998801      0.045126      2.433590
  H       0.626537     -0.848295      2.426147
15
Coordinates from ORCA-job path_back E -270.664711620034
  C       1.932315      1.429762     -0.097351
  C       0.716789      2.293453      0.308244
  C      -0.526876      1.417674      0.037094
  C       0.040369      0.023102      0.009299
  C       1.380843      0.028235     -0.064087
  H       2.286709      1.666083     -1.107083
  H       2.774634      1.557486      0.584404
  H       0.683443      3.245655     -0.221911
  H       0.773932      2.499994      1.376557
  H      -1.296420      1.540886      0.801674
  H      -0.993350      1.650974     -0.927263
  H      -0.575935     -0.868195     -0.014736
  H       2.000535     -0.855540     -0.149915
  O       0.978623      0.053307      2.437794
  H       0.637839     -0.852172      2.420337
15
Coordinates from ORCA-job path_back E -270.664724182429
  C       1.932489      1.429612     -0.097083
  C       0.717227      2.293692      0.308554
  C      -0.526419      1.418084      0.037414
  C       0.040009      0.022466      0.011956
  C       1.380402      0.028825     -0.062023
  H       2.284660      1.664692     -1.108004
  H       2.776958      1.558664      0.581736
  H       0.684118      3.246043     -0.221379
  H       0.774216      2.500669      1.376835
  H      -1.296558      1.544394      0.800731
  H      -0.989812      1.649575     -0.928831
  H      -0.576169     -0.868780     -0.011680
  H       2.000178     -0.854550     -0.153397
  O       0.961395      0.056650      2.441462
  H       0.650758     -0.859330      2.416764
15
Coordinates from ORCA-job path_back E -270.664739637863
  C       1.932194      1.429343     -0.096004
  C       0.717435      2.294545      0.308471
  C      -0.526276      1.419144      0.037477
  C       0.038892      0.022404      0.014587
  C       1.379383      0.029426     -0.059231
  H       2.282845      1.663591     -1.107862
  H       2.779197      1.559873      0.579408
  H       0.684602      3.246117     -0.222906
  H       0.773788      2.503908      1.376374
  H      -1.297247      1.548757      0.799208
  H      -0.985855      1.648865     -0.930999
  H      -0.577435     -0.868574     -0.008445
  H       1.999070     -0.853880     -0.153297
  O       0.945445      0.056756      2.442869
  H       0.667412     -0.869570      2.413407
15
Coordinates from ORCA-job path_back E -270.664757148904
  C       1.931407      1.428879     -0.093985
  C       0.717596      2.296147      0.308125
  C      -0.526434      1.421243      0.037067
  C       0.036777      0.023336      0.017898
  C       1.377651      0.029929     -0.054501
  H       2.280503      1.661859     -1.106977
  H       2.781517      1.561521      0.577178
  H       0.685446      3.246140     -0.226145
  H       0.772805      2.509489      1.375357
  H      -1.298942      1.554561      0.796357
  H      -0.981054      1.648945     -0.934248
  H      -0.580180     -0.866964     -0.003897
  H       1.996826     -0.853874     -0.148002
  O       0.925095      0.054438      2.440753
  H       0.694438     -0.884944      2.408073
15
Coordinates from ORCA-job path_back E -270.664779049830
  C       1.930529      1.428704     -0.092212
  C       0.717633      2.298174      0.306952
  C      -0.526881      1.423734      0.036234
  C       0.034708      0.025442      0.020046
  C       1.376159      0.030224     -0.050260
  H       2.279564      1.660288     -1.105762
  H       2.782237      1.563207      0.576669
  H       0.686251      3.246184     -0.230898
  H       0.771835      2.515805      1.373402
  H      -1.300612      1.558847      0.793820
  H      -0.978691      1.650288     -0.936699
  H      -0.583393     -0.864064     -0.000256
  H       1.994478     -0.854626     -0.138972
  O       0.909469      0.048646      2.436333
  H       0.720162     -0.900149      2.404658
15
Coordinates from ORCA-job path_back E -270.664809143345
  C       1.929842      1.428807     -0.091243
  C       0.717894      2.300495      0.305060
  C      -0.527461      1.426701      0.034949
  C       0.032838      0.028798      0.021775
  C       1.374969      0.030401     -0.046035
  H       2.279734      1.658062     -1.105087
  H       2.781588      1.564955      0.577353
  H       0.687749      3.246707     -0.236025
  H       0.771543      2.521463      1.370848
  H      -1.302038      1.561743      0.791656
  H      -0.979020      1.652742     -0.938269
  H      -0.586700     -0.859698      0.003853
  H       1.992044     -0.856031     -0.125957
  O       0.889753      0.041632      2.429182
  H       0.750714     -0.916072      2.400997
15
Coordinates from ORCA-job path_back E -270.664826926817
  C       1.929948      1.428977     -0.091580
  C       0.718450      2.301660      0.303818
  C      -0.527665      1.428558      0.033859
  C       0.031962      0.031083      0.023266
  C       1.374399      0.030564     -0.043325
  H       2.280128      1.655671     -1.105761
  H       2.780570      1.565672      0.578326
  H       0.689698      3.247821     -0.237421
  H       0.772235      2.522218      1.369649
  H      -1.302389      1.562922      0.790603
  H      -0.980746      1.654318     -0.938720
  H      -0.588243     -0.856855      0.007797
  H       1.990625     -0.856897     -0.117328
  O       0.868797      0.039138      2.422964
  H       0.775682     -0.924146      2.396907
15
Coordinates from ORCA-job path_back E -270.664839809625
  C       1.930515      1.428945     -0.092316
  C       0.719199      2.302054      0.303243
  C      -0.527535      1.429778      0.033063
  C       0.031355      0.032203      0.025246
  C       1.373871      0.030842     -0.041255
  H       2.280202      1.653223     -1.107015
  H       2.780047      1.565491      0.578931
  H       0.691878      3.249195     -0.236340
  H       0.773315      2.520264      1.369515
  H      -1.302063      1.564365      0.790028
  H      -0.981821      1.654902     -0.939051
  H      -0.588900     -0.855538      0.012472
  H       1.989653     -0.857197     -0.112739
  O       0.842599      0.039469      2.417375
  H       0.801135     -0.927291      2.391898
15
Coordinates from ORCA-job path_back E -270.664840369949
  C       1.930936      1.428938     -0.092794
  C       0.719542      2.302176      0.302832
  C      -0.527284      1.430379      0.032766
  C       0.031006      0.032433      0.026546
  C       1.373628      0.031134     -0.040524
  H       2.280623      1.651827     -1.107678
  H       2.779597      1.565222      0.579583
  H       0.692858      3.250044     -0.235488
  H       0.773910      2.518746      1.369423
  H      -1.301456      1.565726      0.789986
  H      -0.981929      1.654856     -0.939263
  H      -0.589445     -0.855373      0.015360
  H       1.989328     -0.857083     -0.112377
  O       0.826307      0.039512      2.414843
  H       0.815830     -0.927832      2.389842
15
Coordinates from ORCA-job path_back E -270.664843579938
  C       1.930981      1.428984     -0.092935
  C       0.719469      2.302168      0.302636
  C      -0.527168      1.430362      0.032917
  C       0.031028      0.032249      0.026702
  C       1.373703      0.031248     -0.040915
  H       2.281270      1.651680     -1.107632
  H       2.779224      1.565117      0.580005
  H       0.692649      3.250137     -0.235481
  H       0.774028      2.518489      1.369273
  H      -1.301095      1.566040      0.790327
  H      -0.981784      1.654584     -0.939166
  H      -0.589641     -0.855539      0.015595
  H       1.989496     -0.856895     -0.113809
  O       0.824605      0.039655      2.415141
  H       0.816685     -0.927574      2.390399
15
Coordinates from ORCA-job path_back E -270.664843568091
  C       1.930860      1.428877     -0.092713
  C       0.719316      2.302128      0.302606
  C      -0.527132      1.430301      0.033175
  C       0.030855      0.031907      0.026988
  C       1.373506      0.031292     -0.041167
  H       2.282064      1.651501     -1.107123
  H       2.778791      1.564755      0.580683
  H       0.692349      3.250082     -0.235508
  H       0.774057      2.518483      1.369234
  H      -1.300974      1.566598      0.790521
  H      -0.981156      1.654076     -0.939289
  H      -0.590028     -0.855637      0.015807
  H       1.989309     -0.856776     -0.115407
  O       0.823219      0.040167      2.414598
  H       0.818413     -0.927047      2.390648
