15
Coordinates from ORCA-job path_forw E -270.663525521857
  C       1.910594      1.401493     -0.015143
  C       0.699712      2.299510      0.314511
  C      -0.543062      1.437271      0.003152
  C      -0.011127      0.034948      0.033325
  C       1.345714      0.008200      0.118433
  H       2.260012      1.547150     -1.047715
  H       2.753527      1.569735      0.656755
  H       0.707502      3.236942     -0.242547
  H       0.713813      2.529934      1.379599
  H      -1.355332      1.593015      0.716441
  H      -0.952181      1.651836     -0.992250
  H      -0.640109     -0.844989     -0.008903
  H       1.949180     -0.881765     -0.003583
  O       1.196738      0.011979      2.154200
  H       0.732239     -0.854486      2.284375
15
Coordinates from ORCA-job path_forw E -270.665101273207
  C       1.908001      1.397220     -0.006960
  C       0.698324      2.297047      0.317846
  C      -0.545309      1.437316      0.001700
  C      -0.016239      0.033959      0.034110
  C       1.341308      0.007725      0.128579
  H       2.258151      1.540210     -1.035691
  H       2.750361      1.563915      0.663453
  H       0.710646      3.233829     -0.239620
  H       0.709020      2.527808      1.381844
  H      -1.359338      1.594856      0.712420
  H      -0.949601      1.653493     -0.995360
  H      -0.645345     -0.846164     -0.007696
  H       1.945560     -0.881671      0.007142
  O       1.208591      0.010860      2.122644
  H       0.753090     -0.829630      2.266240
15
Coordinates from ORCA-job path_forw E -270.668094209635
  C       1.903065      1.390187      0.008521
  C       0.695014      2.294156      0.323070
  C      -0.550534      1.439064     -0.002398
  C      -0.029419      0.032950      0.033668
  C       1.335609      0.006408      0.155039
  H       2.253318      1.525716     -1.016869
  H       2.745615      1.556096      0.675503
  H       0.715566      3.228892     -0.236979
  H       0.698795      2.527056      1.385317
  H      -1.368883      1.600885      0.702170
  H      -0.944454      1.659377     -1.002795
  H      -0.659765     -0.845979     -0.010700
  H       1.942942     -0.881738      0.023971
  O       1.238227      0.008550      2.066321
  H       0.792123     -0.800847      2.246811
15
Coordinates from ORCA-job path_forw E -270.671995606468
  C       1.900172      1.386522      0.018413
  C       0.692864      2.293313      0.326188
  C      -0.553525      1.440473     -0.004821
  C      -0.038849      0.032361      0.033472
  C       1.334019      0.004580      0.176937
  H       2.248934      1.515671     -1.007150
  H       2.743701      1.554144      0.682642
  H       0.717717      3.226064     -0.236780
  H       0.692367      2.528765      1.387509
  H      -1.375309      1.605559      0.695032
  H      -0.940460      1.663801     -1.007426
  H      -0.670681     -0.845009     -0.013591
  H       1.943213     -0.882612      0.033991
  O       1.258600      0.008766      2.028735
  H       0.814458     -0.791625      2.237499
15
Coordinates from ORCA-job path_forw E -270.677071731327
  C       1.897547      1.383207      0.027967
  C       0.690737      2.292748      0.329248
  C      -0.556384      1.441912     -0.007116
  C      -0.048756      0.031627      0.033033
  C       1.333654      0.001996      0.200977
  H       2.243814      1.505667     -0.998728
  H       2.742503      1.553672      0.689041
  H       0.719287      3.223257     -0.237134
  H       0.686174      2.531335      1.389693
  H      -1.381914      1.610501      0.687652
  H      -0.936167      1.668835     -1.011841
  H      -0.682512     -0.843719     -0.017738
  H       1.944535     -0.884103      0.042948
  O       1.278279      0.008208      1.993236
  H       0.836422     -0.784370      2.229410
15
Coordinates from ORCA-job path_forw E -270.681272279102
  C       1.896371      1.381775      0.033816
  C       0.689351      2.292909      0.330889
  C      -0.558306      1.442929     -0.008461
  C      -0.056321      0.030982      0.032913
  C       1.335105     -0.000371      0.219038
  H       2.240030      1.499857     -0.994779
  H       2.742793      1.555319      0.692526
  H       0.719519      3.221478     -0.238648
  H       0.682382      2.534683      1.390798
  H      -1.386649      1.614350      0.682550
  H      -0.933079      1.672807     -1.014572
  H      -0.691771     -0.842552     -0.021032
  H       1.947046     -0.885872      0.048592
  O       1.291724      0.007406      1.971634
  H       0.849025     -0.784927      2.225387
15
Coordinates from ORCA-job path_forw E -270.685326445820
  C       1.894813      1.380192      0.039472
  C       0.688017      2.293013      0.332679
  C      -0.559822      1.443899     -0.009857
  C      -0.063181      0.030450      0.032663
  C       1.336097     -0.002676      0.237685
  H       2.235408      1.493647     -0.990964
  H       2.742875      1.557004      0.695467
  H       0.719805      3.219660     -0.239938
  H       0.678618      2.537935      1.392009
  H      -1.391084      1.618063      0.677236
  H      -0.929462      1.676740     -1.017343
  H      -0.700202     -0.841368     -0.024983
  H       1.948458     -0.886975      0.053618
  O       1.304650      0.005637      1.951568
  H       0.862228     -0.784447      2.221338
15
Coordinates from ORCA-job path_forw E -270.689725789008
  C       1.895175      1.381243      0.042996
  C       0.686917      2.294849      0.333042
  C      -0.561325      1.445022     -0.010508
  C      -0.071467      0.030023      0.033708
  C       1.341379     -0.005973      0.259753
  H       2.230505      1.490395     -0.992360
  H       2.746241      1.564198      0.695775
  H       0.717941      3.218562     -0.244775
  H       0.676145      2.545738      1.391975
  H      -1.396031      1.622743      0.672156
  H      -0.925735      1.681167     -1.019353
  H      -0.710319     -0.839622     -0.028518
  H       1.953249     -0.889484      0.058831
  O       1.318188      0.002625      1.938530
  H       0.866357     -0.800713      2.219398
15
Coordinates from ORCA-job path_forw E -270.695179300314
  C       1.892316      1.378840      0.050900
  C       0.684974      2.295136      0.335855
  C      -0.562984      1.446505     -0.012581
  C      -0.081698      0.029616      0.033083
  C       1.344319     -0.009501      0.290347
  H       2.221126      1.480389     -0.987979
  H       2.746423      1.567341      0.698656
  H       0.717758      3.215553     -0.247237
  H       0.670748      2.551376      1.393753
  H      -1.402530      1.628585      0.663370
  H      -0.919027      1.687522     -1.023521
  H      -0.723008     -0.837073     -0.036421
  H       1.955671     -0.889911      0.063944
  O       1.337491     -0.001616      1.913423
  H       0.885639     -0.801989      2.215057
15
Coordinates from ORCA-job path_forw E -270.701984019361
  C       1.886164      1.374857      0.061196
  C       0.682517      2.296264      0.340395
  C      -0.563723      1.449308     -0.016166
  C      -0.090969      0.030461      0.032138
  C       1.345291     -0.013148      0.338946
  H       2.202780      1.461083     -0.982393
  H       2.746274      1.573382      0.698240
  H       0.718697      3.212461     -0.249048
  H       0.663225      2.558808      1.396820
  H      -1.410741      1.636671      0.649527
  H      -0.907790      1.695154     -1.030391
  H      -0.734261     -0.833457     -0.050794
  H       1.951917     -0.885083      0.068266
  O       1.362945     -0.012380      1.884365
  H       0.914893     -0.803609      2.209549
15
Coordinates from ORCA-job path_forw E -270.707901572415
  C       1.875294      1.370272      0.071421
  C       0.679075      2.300661      0.345603
  C      -0.563138      1.455742     -0.023641
  C      -0.098622      0.036069      0.030312
  C       1.349495     -0.017114      0.422020
  H       2.164235      1.424828     -0.983444
  H       2.749369      1.590704      0.684410
  H       0.719668      3.211868     -0.251546
  H       0.653117      2.571456      1.400728
  H      -1.422472      1.649898      0.625197
  H      -0.889802      1.706256     -1.042898
  H      -0.741986     -0.824706     -0.080365
  H       1.940640     -0.867442      0.064761
  O       1.400698     -0.037517      1.875695
  H       0.951647     -0.830201      2.212398
15
Coordinates from ORCA-job path_forw E -270.709552324461
  C       1.863358      1.363402      0.076427
  C       0.675893      2.300813      0.350167
  C      -0.563215      1.463287     -0.039559
  C      -0.096143      0.043984      0.024224
  C       1.341038     -0.014668      0.470324
  H       2.128367      1.383741     -0.982924
  H       2.750606      1.601725      0.662751
  H       0.730029      3.220550     -0.232378
  H       0.641746      2.558022      1.407968
  H      -1.429036      1.659735      0.600224
  H      -0.880229      1.712269     -1.062214
  H      -0.735815     -0.817648     -0.107079
  H       1.915405     -0.843468      0.052444
  O       1.430163     -0.054568      1.900445
  H       0.995052     -0.836406      2.229831
15
Coordinates from ORCA-job path_forw E -270.709039743613
  C       1.859026      1.365169      0.074313
  C       0.673696      2.303983      0.348535
  C      -0.562648      1.468808     -0.051600
  C      -0.098204      0.050217      0.024740
  C       1.345740     -0.015284      0.494782
  H       2.104160      1.364575     -0.993701
  H       2.755485      1.621200      0.643599
  H       0.733347      3.230471     -0.223709
  H       0.635336      2.554125      1.409538
  H      -1.433950      1.669476      0.580323
  H      -0.873384      1.715040     -1.076650
  H      -0.736036     -0.810506     -0.121702
  H       1.905422     -0.829109      0.025650
  O       1.454819     -0.070316      1.952504
  H       1.004410     -0.877074      2.264028
15
Coordinates from ORCA-job path_forw E -270.710256568667
  C       1.861978      1.365628      0.080139
  C       0.673924      2.301791      0.348266
  C      -0.564499      1.468651     -0.056191
  C      -0.093967      0.050694      0.036550
  C       1.334634     -0.009879      0.482492
  H       2.110962      1.356215     -0.983311
  H       2.757711      1.626477      0.646190
  H       0.743744      3.236657     -0.208707
  H       0.631459      2.540869      1.410981
  H      -1.433067      1.670581      0.578982
  H      -0.878383      1.703109     -1.082405
  H      -0.729609     -0.814773     -0.098858
  H       1.897474     -0.832670      0.035632
  O       1.448989     -0.065146      1.928067
  H       1.005869     -0.857430      2.232823
15
Coordinates from ORCA-job path_forw E -270.710406689466
  C       1.862330      1.367781      0.081348
  C       0.672893      2.302773      0.347691
  C      -0.563257      1.469536     -0.058795
  C      -0.092910      0.052446      0.048930
  C       1.334979     -0.008555      0.484898
  H       2.107862      1.354349     -0.983933
  H       2.758884      1.633669      0.642364
  H       0.744719      3.241235     -0.203111
  H       0.628028      2.537347      1.411754
  H      -1.434006      1.675897      0.571936
  H      -0.872753      1.696120     -1.087852
  H      -0.727538     -0.813845     -0.083969
  H       1.896600     -0.833037      0.036564
  O       1.452267     -0.071468      1.921661
  H       0.999122     -0.863475      2.221165
15
Coordinates from ORCA-job path_forw E -270.710504981788
  C       1.861505      1.370167      0.081626
  C       0.670959      2.303705      0.347967
  C      -0.561915      1.471276     -0.064364
  C      -0.093474      0.055155      0.063911
  C       1.334754     -0.006815      0.486134
  H       2.101743      1.353521     -0.985701
  H       2.759979      1.640425      0.636367
  H       0.745470      3.247635     -0.193115
  H       0.622593      2.529690      1.414188
  H      -1.437360      1.684577      0.557414
  H      -0.861939      1.687817     -1.098280
  H      -0.727292     -0.811889     -0.066523
  H       1.892874     -0.831527      0.032368
  O       1.463464     -0.082702      1.922674
  H       0.995858     -0.870262      2.215986
15
Coordinates from ORCA-job path_forw E -270.710610244238
  C       1.859410      1.372826      0.082411
  C       0.667932      2.304708      0.350208
  C      -0.560316      1.473142     -0.071791
  C      -0.097772      0.058344      0.085623
  C       1.335544     -0.005385      0.488409
  H       2.093490      1.356260     -0.986921
  H       2.760500      1.645231      0.631562
  H       0.744432      3.254304     -0.180558
  H       0.614774      2.520303      1.418846
  H      -1.445453      1.698191      0.531718
  H      -0.840941      1.676016     -1.114095
  H      -0.731677     -0.809113     -0.040866
  H       1.886153     -0.827791      0.020150
  O       1.486156     -0.100147      1.922524
  H       0.994988     -0.876118      2.213431
15
Coordinates from ORCA-job path_forw E -270.710707836489
  C       1.856423      1.375239      0.083559
  C       0.664388      2.305272      0.354821
  C      -0.558801      1.474296     -0.079132
  C      -0.105253      0.061063      0.111284
  C       1.336722     -0.004590      0.488258
  H       2.086666      1.363749     -0.986741
  H       2.759508      1.645614      0.630509
  H       0.741481      3.259576     -0.167268
  H       0.606020      2.510439      1.425503
  H      -1.457252      1.713930      0.498150
  H      -0.811650      1.661649     -1.131897
  H      -0.740248     -0.806516     -0.008577
  H       1.876753     -0.822919      0.000208
  O       1.516235     -0.120339      1.918490
  H       0.996228     -0.875690      2.213482
15
Coordinates from ORCA-job path_forw E -270.710757105389
  C       1.854033      1.376281      0.084649
  C       0.662214      2.305239      0.359263
  C      -0.558156      1.474186     -0.082280
  C      -0.111659      0.061674      0.127773
  C       1.337750     -0.005097      0.485903
  H       2.085260      1.371419     -0.985032
  H       2.757172      1.642257      0.634036
  H       0.738410      3.260782     -0.160653
  H       0.600955      2.505927      1.430534
  H      -1.466434      1.723482      0.474704
  H      -0.789454      1.652227     -1.142095
  H      -0.747994     -0.805866      0.014246
  H       1.869567     -0.819464     -0.017639
  O       1.537714     -0.132954      1.912096
  H       0.997841     -0.869321      2.215146
15
Coordinates from ORCA-job path_forw E -270.710767565639
  C       1.853229      1.376290      0.084929
  C       0.661891      2.304934      0.361109
  C      -0.558193      1.473627     -0.081798
  C      -0.113640      0.060862      0.130958
  C       1.338260     -0.006056      0.483683
  H       2.087212      1.374533     -0.983799
  H       2.755352      1.639872      0.637361
  H       0.737070      3.259692     -0.160412
  H       0.600509      2.506116      1.432095
  H      -1.469334      1.724950      0.469300
  H      -0.782976      1.650406     -1.143426
  H      -0.750647     -0.806680      0.020779
  H       1.867756     -0.818805     -0.024715
  O       1.543552     -0.135350      1.908426
  H       0.997178     -0.863618      2.216160
15
Coordinates from ORCA-job path_forw E -270.710773046780
  C       1.853173      1.376219      0.084623
  C       0.662055      2.304581      0.361675
  C      -0.558235      1.473252     -0.081027
  C      -0.113428      0.060313      0.130173
  C       1.338605     -0.006649      0.482559
  H       2.088548      1.375048     -0.983691
  H       2.754694      1.639415      0.638295
  H       0.736625      3.258983     -0.160611
  H       0.601228      2.506269      1.432515
  H      -1.469658      1.724077      0.469748
  H      -0.782444      1.650768     -1.142695
  H      -0.750723     -0.807257      0.021772
  H       1.868053     -0.819050     -0.026273
  O       1.543866     -0.134950      1.907199
  H       0.994861     -0.860244      2.216389
15
Coordinates from ORCA-job path_forw E -270.710774203769
  C       1.853358      1.376221      0.083926
  C       0.662325      2.304029      0.362178
  C      -0.558193      1.472763     -0.080162
  C      -0.112453      0.059771      0.128587
  C       1.339214     -0.007287      0.481327
  H       2.089773      1.375276     -0.984115
  H       2.754375      1.639543      0.638408
  H       0.736138      3.258454     -0.160216
  H       0.602387      2.505702      1.433015
  H      -1.469560      1.722426      0.471166
  H      -0.782734      1.651433     -1.141585
  H      -0.750137     -0.807856      0.022761
  H       1.869071     -0.819472     -0.027213
  O       1.543566     -0.134448      1.906163
  H       0.990091     -0.855784      2.216411
15
Coordinates from ORCA-job path_forw E -270.710774502499
  C       1.853748      1.376319      0.083123
  C       0.662572      2.303455      0.362526
  C      -0.558030      1.472244     -0.079586
  C      -0.111153      0.059346      0.127029
  C       1.340000     -0.007735      0.480304
  H       2.090354      1.375491     -0.984896
  H       2.754596      1.640044      0.637708
  H       0.735715      3.258343     -0.159149
  H       0.603468      2.504395      1.433544
  H      -1.469184      1.720652      0.472611
  H      -0.783329      1.651949     -1.140672
  H      -0.749285     -0.808342      0.024170
  H       1.870471     -0.819733     -0.027735
  O       1.543370     -0.134536      1.905426
  H       0.983907     -0.851120      2.216247
15
Coordinates from ORCA-job path_forw E -270.710775800551
  C       1.854264      1.376454      0.082500
  C       0.662769      2.303009      0.362666
  C      -0.557766      1.471734     -0.079343
  C      -0.109901      0.058969      0.125741
  C       1.340842     -0.007914      0.479600
  H       2.090298      1.375831     -0.985700
  H       2.755257      1.640564      0.636646
  H       0.735465      3.258522     -0.157927
  H       0.604196      2.502912      1.433944
  H      -1.468579      1.719082      0.473886
  H      -0.784125      1.652261     -1.140050
  H      -0.748484     -0.808754      0.025794
  H       1.872009     -0.819678     -0.028040
  O       1.543424     -0.135287      1.904960
  H       0.977550     -0.846931      2.215974
15
Coordinates from ORCA-job path_forw E -270.710777457020
  C       1.854701      1.376541      0.082313
  C       0.662891      2.302830      0.362621
  C      -0.557510      1.471367     -0.079370
  C      -0.109164      0.058643      0.124982
  C       1.341460     -0.007834      0.479285
  H       2.089932      1.376227     -0.986106
  H       2.755968      1.640767      0.635925
  H       0.735465      3.258706     -0.157290
  H       0.604360      2.502090      1.434060
  H      -1.467948      1.718141      0.474766
  H      -0.784902      1.652386     -1.139751
  H      -0.748080     -0.809067      0.027029
  H       1.873164     -0.819351     -0.028259
  O       1.543628     -0.136268      1.904727
  H       0.973256     -0.844406      2.215717
15
Coordinates from ORCA-job path_forw E -270.710778456366
  C       1.854912      1.376556      0.082456
  C       0.662952      2.302859      0.362522
  C      -0.557366      1.471204     -0.079453
  C      -0.108978      0.058420      0.124665
  C       1.341724     -0.007682      0.479228
  H       2.089721      1.376481     -0.986064
  H       2.756337      1.640686      0.635837
  H       0.735607      3.258694     -0.157424
  H       0.604172      2.502164      1.433951
  H      -1.467520      1.717819      0.475268
  H      -0.785458      1.652452     -1.139625
  H      -0.748058     -0.809247      0.027531
  H       1.873677     -0.819031     -0.028428
  O       1.543728     -0.136880      1.904635
  H       0.971770     -0.843720      2.215552
