11
Coordinates from ORCA-job opt E -193.367682258828
  C       0.000000      0.000000      0.000000
  C       0.000000      0.000000      1.340520
  H       0.923618      0.000000     -0.565407
  H      -0.928692     -0.015533     -0.561143
  H       0.952982      0.007407      1.863247
  C      -1.235980     -0.002945      2.193698
  H      -1.244748     -0.869988      2.858779
  H      -2.136892     -0.030024      1.578246
  H      -1.272976      0.890771      2.821664
  O      -0.439546      3.256058      1.028234
  H      -0.243768      2.342278      0.750565
11
Coordinates from ORCA-job opt E -193.367720235248
  C      -0.001000      0.000695      0.002843
  C      -0.001169      0.000726      1.339619
  H       0.922505      0.000202     -0.562403
  H      -0.929127     -0.015026     -0.558401
  H       0.951612      0.007935      1.862451
  C      -1.235021     -0.002846      2.191723
  H      -1.243119     -0.869697      2.856643
  H      -2.135998     -0.029844      1.577139
  H      -1.271811      0.890228      2.820524
  O      -0.439171      3.254698      1.027563
  H      -0.243702      2.340952      0.750702
11
Coordinates from ORCA-job opt E -193.367720397235
  C      -0.001328      0.001092      0.003918
  C      -0.001888      0.001046      1.339242
  H       0.922183      0.000502     -0.561316
  H      -0.929153     -0.014781     -0.557863
  H       0.950851      0.008355      1.862409
  C      -1.234729     -0.002979      2.190913
  H      -1.242305     -0.869688      2.856106
  H      -2.136232     -0.029925      1.577007
  H      -1.271240      0.889583      2.820572
  O      -0.438737      3.254352      1.026959
  H      -0.243423      2.340468      0.750457
11
Coordinates from ORCA-job opt E -193.367720572048
  C      -0.001332      0.001334      0.004022
  C      -0.002258      0.001146      1.339164
  H       0.922209      0.000846     -0.561171
  H      -0.928895     -0.014629     -0.558268
  H       0.950398      0.008671      1.862580
  C      -1.234817     -0.003196      2.190805
  H      -1.242059     -0.869785      2.856226
  H      -2.136745     -0.030099      1.577462
  H      -1.271066      0.888992      2.821097
  O      -0.438336      3.254340      1.026424
  H      -0.243101      2.340402      0.750063
