11
Coordinates from ORCA-job opt E -193.363664114786
  C       0.000000      0.000000      0.000000
  H       0.000000      0.000000      1.083983
  C       1.179838      0.000000     -0.649534
  H       2.115620      0.045134     -0.114575
  H       1.220105      0.049464     -1.727131
  C      -1.328476     -0.032628     -0.683708
  H      -1.207449     -0.046603     -1.764055
  H      -1.897879     -0.915303     -0.393481
  H      -1.930128      0.841342     -0.410336
  O       1.207245     -2.305627     -1.018281
  H       0.844502     -2.486421     -0.138893
11
Coordinates from ORCA-job opt E -193.364371682739
  C       0.000473      0.007865     -0.000683
  H      -0.005319      0.010332      1.084943
  C       1.179011      0.025471     -0.643551
  H       2.116348      0.059379     -0.108197
  H       1.224497      0.054787     -1.725064
  C      -1.329910     -0.029437     -0.683731
  H      -1.212421     -0.045567     -1.765753
  H      -1.897273     -0.913538     -0.389239
  H      -1.932479      0.842670     -0.410562
  O       1.205844     -2.359648     -1.033661
  H       0.854607     -2.502956     -0.140513
11
Coordinates from ORCA-job opt E -193.364902587361
  C       0.003611      0.015720     -0.002197
  H      -0.004031      0.017874      1.084254
  C       1.180493      0.051522     -0.640734
  H       2.117286      0.080138     -0.104195
  H       1.229600      0.066049     -1.723639
  C      -1.328114     -0.029390     -0.684532
  H      -1.211828     -0.038190     -1.767514
  H      -1.887363     -0.921058     -0.394068
  H      -1.937223      0.835241     -0.404969
  O       1.185559     -2.412229     -1.042943
  H       0.855388     -2.516319     -0.135474
11
Coordinates from ORCA-job opt E -193.365148145193
  C       0.006531      0.019765     -0.004512
  H      -0.000921      0.019605      1.082236
  C       1.182144      0.065974     -0.641036
  H       2.118180      0.096777     -0.101741
  H       1.233439      0.077785     -1.723645
  C      -1.325832     -0.030085     -0.685817
  H      -1.210831     -0.029844     -1.769246
  H      -1.878049     -0.928507     -0.401192
  H      -1.940737      0.827671     -0.398648
  O       1.162073     -2.443910     -1.045141
  H       0.857381     -2.525872     -0.127268
11
Coordinates from ORCA-job opt E -193.365261858238
  C       0.008607      0.021218     -0.006680
  H       0.001496      0.017208      1.080203
  C       1.183564      0.074322     -0.642554
  H       2.119208      0.106490     -0.101907
  H       1.235745      0.087838     -1.724960
  C      -1.324127     -0.030480     -0.687263
  H      -1.210044     -0.020837     -1.770830
  H      -1.870856     -0.934579     -0.409355
  H      -1.943454      0.821340     -0.392341
  O       1.141660     -2.461568     -1.043342
  H       0.861582     -2.531593     -0.116982
11
Coordinates from ORCA-job opt E -193.365391033494
  C       0.011701      0.021126     -0.010786
  H       0.005682      0.008163      1.076163
  C       1.185392      0.085142     -0.646669
  H       2.121008      0.117614     -0.105181
  H       1.237706      0.104835     -1.728856
  C      -1.321647     -0.030560     -0.690179
  H      -1.209055     -0.001371     -1.773644
  H      -1.859606     -0.944546     -0.427095
  H      -1.947785      0.810544     -0.379640
  O       1.107760     -2.483265     -1.034800
  H       0.872221     -2.538323     -0.095323
11
Coordinates from ORCA-job opt E -193.365485686681
  C       0.017296      0.016322     -0.018782
  H       0.013540     -0.015573      1.067701
  C       1.189519      0.097576     -0.655420
  H       2.125589      0.126907     -0.113635
  H       1.240939      0.133976     -1.737317
  C      -1.317306     -0.032032     -0.695829
  H      -1.208091      0.031243     -1.778203
  H      -1.841018     -0.961567     -0.459372
  H      -1.953583      0.790495     -0.357742
  O       1.045947     -2.496974     -1.012292
  H       0.890544     -2.541016     -0.055118
11
Coordinates from ORCA-job opt E -193.365492917272
  C       0.021607     -0.001445     -0.032844
  H       0.022524     -0.074547      1.051463
  C       1.189871      0.107222     -0.673178
  H       2.127640      0.121868     -0.133485
  H       1.237556      0.179579     -1.753888
  C      -1.315439     -0.028366     -0.705532
  H      -1.210831      0.086953     -1.784075
  H      -1.829705     -0.972735     -0.510697
  H      -1.956056      0.772856     -0.326499
  O       0.973881     -2.499460     -0.958811
  H       0.942330     -2.542568      0.011535
11
Coordinates from ORCA-job opt E -193.365366534395
  C       0.014488     -0.005373     -0.037049
  H       0.018637     -0.078762      1.048287
  C       1.180066      0.091259     -0.679454
  H       2.118550      0.093452     -0.140770
  H       1.225598      0.158680     -1.758496
  C      -1.324861     -0.015388     -0.705834
  H      -1.221939      0.122421     -1.781745
  H      -1.842679     -0.961543     -0.528540
  H      -1.960972      0.781097     -0.309449
  O       1.045081     -2.500875     -0.942468
  H       0.951411     -2.535611      0.019505
11
Coordinates from ORCA-job opt E -193.365582477502
  C       0.027333      0.000357     -0.033626
  H       0.028803     -0.074328      1.051725
  C       1.194214      0.121789     -0.672128
  H       2.129650      0.140277     -0.133912
  H       1.240208      0.195999     -1.751865
  C      -1.309221     -0.034739     -0.707053
  H      -1.204596      0.085093     -1.785426
  H      -1.815679     -0.983962     -0.516249
  H      -1.955243      0.761664     -0.327531
  O       0.919975     -2.510640     -0.953259
  H       0.947935     -2.552151      0.013313
11
Coordinates from ORCA-job opt E -193.365681665722
  C       0.032099      0.004656     -0.032613
  H       0.032861     -0.066035      1.052107
  C       1.201676      0.134814     -0.666253
  H       2.135802      0.166468     -0.123145
  H       1.251142      0.208666     -1.746984
  C      -1.302715     -0.044208     -0.708108
  H      -1.197064      0.062332     -1.787834
  H      -1.804222     -0.993543     -0.506131
  H      -1.953196      0.753590     -0.339197
  O       0.843110     -2.511383     -0.959948
  H       0.963885     -2.565997      0.002094
11
Coordinates from ORCA-job opt E -193.365699471515
  C       0.032431      0.000288     -0.035629
  H       0.032596     -0.082291      1.048070
  C       1.201071      0.139052     -0.669723
  H       2.134905      0.170218     -0.125372
  H       1.250773      0.221905     -1.750012
  C      -1.302378     -0.042352     -0.711419
  H      -1.196400      0.073406     -1.790066
  H      -1.804192     -0.992978     -0.516962
  H      -1.951857      0.753246     -0.335579
  O       0.809132     -2.516385     -0.940400
  H       0.997297     -2.574752      0.011080
11
Coordinates from ORCA-job opt E -193.365581020000
  C       0.032970     -0.016051     -0.046114
  H       0.035252     -0.119239      1.037516
  C       1.199712      0.126759     -0.684913
  H       2.137369      0.141435     -0.143445
  H       1.245451      0.231344     -1.764233
  C      -1.304763     -0.038052     -0.716827
  H      -1.203319      0.125666     -1.789271
  H      -1.798070     -1.000425     -0.562708
  H      -1.957779      0.735462     -0.303259
  O       0.806732     -2.486306     -0.894751
  H       1.009824     -2.551235      0.051993
11
Coordinates from ORCA-job opt E -193.365457525658
  C       0.027829     -0.010892     -0.028187
  H       0.020268     -0.083866      1.057632
  C       1.198257      0.117134     -0.668128
  H       2.132959      0.145307     -0.130811
  H       1.254317      0.200189     -1.759018
  C      -1.306653     -0.043503     -0.706162
  H      -1.195980      0.059055     -1.785122
  H      -1.827655     -0.982938     -0.503896
  H      -1.945215      0.765775     -0.339913
  O       0.879715     -2.475534     -0.957865
  H       0.965536     -2.541369      0.005458
11
Coordinates from ORCA-job opt E -193.365374181478
  C       0.021743     -0.030221     -0.041447
  H       0.016712     -0.137809      1.044406
  C       1.192284      0.108464     -0.682667
  H       2.137347      0.120780     -0.146692
  H       1.242279      0.225314     -1.765028
  C      -1.315417     -0.031214     -0.713340
  H      -1.208238      0.098571     -1.789968
  H      -1.842974     -0.970660     -0.530596
  H      -1.943662      0.776556     -0.325989
  O       0.878618     -2.469529     -0.905778
  H       1.024686     -2.540895      0.041089
11
Coordinates from ORCA-job opt E -193.365606756522
  C       0.026360     -0.017552     -0.037985
  H       0.023124     -0.113143      1.047132
  C       1.197358      0.120871     -0.673629
  H       2.138145      0.139857     -0.134081
  H       1.247700      0.226283     -1.754614
  C      -1.309479     -0.038117     -0.712437
  H      -1.202479      0.073189     -1.791476
  H      -1.828340     -0.979028     -0.515004
  H      -1.944733      0.769985     -0.338964
  O       0.836349     -2.481826     -0.925050
  H       1.019374     -2.551161      0.020097
11
Coordinates from ORCA-job opt E -193.365666823858
  C       0.025389     -0.016125     -0.038496
  H       0.022804     -0.112187      1.045720
  C       1.197066      0.121883     -0.671652
  H       2.136503      0.139821     -0.130821
  H       1.247512      0.226853     -1.752033
  C      -1.309794     -0.036841     -0.713908
  H      -1.202285      0.072979     -1.793082
  H      -1.828162     -0.977680     -0.515411
  H      -1.945281      0.771464     -0.341417
  O       0.814483     -2.484673     -0.920893
  H       1.045145     -2.556136      0.015983
11
Coordinates from ORCA-job opt E -193.365603269460
  C       0.023810     -0.023823     -0.043353
  H       0.024463     -0.128066      1.038853
  C       1.196257      0.111882     -0.674928
  H       2.136300      0.115891     -0.136435
  H       1.245059      0.224982     -1.754265
  C      -1.312355     -0.034369     -0.716519
  H      -1.207106      0.089510     -1.794399
  H      -1.828558     -0.978665     -0.529809
  H      -1.947953      0.767465     -0.331367
  O       0.811366     -2.457611     -0.903866
  H       1.062095     -2.537837      0.030077
11
Coordinates from ORCA-job opt E -193.365679275557
  C       0.027339     -0.006670     -0.035219
  H       0.027195     -0.087240      1.048805
  C       1.199619      0.123884     -0.665717
  H       2.136869      0.145931     -0.123589
  H       1.250966      0.214653     -1.746567
  C      -1.307548     -0.040988     -0.710984
  H      -1.200823      0.058333     -1.791304
  H      -1.819707     -0.983380     -0.504169
  H      -1.948616      0.765860     -0.345947
  O       0.824270     -2.484068     -0.945321
  H       1.013814     -2.556955      0.004001
11
Coordinates from ORCA-job opt E -193.365660237480
  C       0.027960     -0.000005     -0.029968
  H       0.026587     -0.069260      1.053985
  C       1.200035      0.126224     -0.661797
  H       2.136252      0.155859     -0.118837
  H       1.252726      0.203742     -1.743724
  C      -1.306200     -0.043426     -0.707126
  H      -1.198424      0.040311     -1.788648
  H      -1.820466     -0.981937     -0.487480
  H      -1.947459      0.768646     -0.353889
  O       0.853936     -2.489268     -0.970424
  H       0.978429     -2.561530     -0.008105
11
Coordinates from ORCA-job opt E -193.365404467895
  C       0.037100      0.019960     -0.019267
  H       0.039800     -0.015709      1.065857
  C       1.208219      0.136125     -0.645739
  H       2.134712      0.175764     -0.102269
  H       1.267416      0.189998     -1.731771
  C      -1.295958     -0.059764     -0.700458
  H      -1.186897     -0.012184     -1.784343
  H      -1.806539     -0.995197     -0.457508
  H      -1.949005      0.752653     -0.373127
  O       0.844006     -2.486467     -1.023019
  H       0.910524     -2.555821     -0.044367
11
Coordinates from ORCA-job opt E -193.365518610822
  C       0.034388      0.006538     -0.026243
  H       0.038057     -0.048633      1.059196
  C       1.205341      0.129425     -0.654230
  H       2.136325      0.156186     -0.113130
  H       1.260455      0.202420     -1.738240
  C      -1.300199     -0.053979     -0.704909
  H      -1.192962      0.014201     -1.787893
  H      -1.811976     -0.992322     -0.477370
  H      -1.948452      0.755775     -0.361684
  O       0.840548     -2.474560     -0.991280
  H       0.941853     -2.545692     -0.020226
11
Coordinates from ORCA-job opt E -193.365585018421
  C       0.031198     -0.004504     -0.030796
  H       0.034638     -0.072029      1.056244
  C       1.201770      0.122043     -0.661485
  H       2.139744      0.143210     -0.120719
  H       1.252852      0.206559     -1.743835
  C      -1.304584     -0.048625     -0.707431
  H      -1.198144      0.034590     -1.789407
  H      -1.820536     -0.987305     -0.491299
  H      -1.947186      0.761080     -0.353113
  O       0.853550     -2.468344     -0.969995
  H       0.960076     -2.537317     -0.004175
11
Coordinates from ORCA-job opt E -193.365580149999
  C       0.028457     -0.011942     -0.033309
  H       0.031914     -0.088296      1.053742
  C       1.199501      0.116692     -0.664675
  H       2.142774      0.133767     -0.125978
  H       1.247660      0.209152     -1.745316
  C      -1.307542     -0.045054     -0.709447
  H      -1.200915      0.045251     -1.790828
  H      -1.827111     -0.982924     -0.498873
  H      -1.946088      0.765589     -0.349846
  O       0.855840     -2.462465     -0.956368
  H       0.978888     -2.530410      0.004887
11
Coordinates from ORCA-job opt E -193.365531855158
  C       0.024907     -0.018046     -0.037584
  H       0.028849     -0.105445      1.048712
  C       1.196443      0.113238     -0.667775
  H       2.145074      0.126122     -0.131610
  H       1.241799      0.211994     -1.743540
  C      -1.311736     -0.039923     -0.711667
  H      -1.205539      0.057918     -1.792433
  H      -1.834423     -0.976898     -0.505876
  H      -1.944905      0.772721     -0.346868
  O       0.859925     -2.462919     -0.940002
  H       1.002983     -2.529405      0.012632
11
Coordinates from ORCA-job opt E -193.365511396530
  C       0.021485     -0.021789     -0.039154
  H       0.024623     -0.114106      1.046647
  C       1.193626      0.108868     -0.667431
  H       2.143205      0.117767     -0.132747
  H       1.239217      0.213520     -1.741847
  C      -1.314900     -0.035991     -0.713204
  H      -1.208001      0.059032     -1.794107
  H      -1.843201     -0.969100     -0.504635
  H      -1.942543      0.781704     -0.349868
  O       0.858572     -2.460140     -0.932616
  H       1.031294     -2.530406      0.012952
11
Coordinates from ORCA-job opt E -193.365551160346
  C       0.022711     -0.017553     -0.037297
  H       0.025352     -0.106281      1.048583
  C       1.193997      0.112866     -0.666843
  H       2.141609      0.125768     -0.130923
  H       1.239750      0.212855     -1.742230
  C      -1.313470     -0.036861     -0.711731
  H      -1.206483      0.055109     -1.792904
  H      -1.840247     -0.970194     -0.500189
  H      -1.942759      0.780969     -0.351220
  O       0.868849     -2.470316     -0.941162
  H       1.014070     -2.537005      0.009905
11
Coordinates from ORCA-job opt E -193.365586234895
  C       0.024061     -0.012735     -0.035343
  H       0.026176     -0.096566      1.050626
  C       1.194956      0.116673     -0.665540
  H       2.140600      0.133862     -0.128324
  H       1.241298      0.211500     -1.741882
  C      -1.311954     -0.038320     -0.710065
  H      -1.205026      0.049020     -1.791631
  H      -1.836849     -0.971788     -0.494373
  H      -1.943181      0.779704     -0.353298
  O       0.878001     -2.479167     -0.951100
  H       0.995296     -2.542824      0.004918
11
Coordinates from ORCA-job opt E -193.365619051169
  C       0.026167     -0.005165     -0.032059
  H       0.027581     -0.080461      1.054229
  C       1.196489      0.122387     -0.663266
  H       2.139836      0.146593     -0.124651
  H       1.243320      0.208237     -1.740935
  C      -1.309376     -0.040810     -0.707534
  H      -1.202123      0.040522     -1.789522
  H      -1.830674     -0.975155     -0.486745
  H      -1.944406      0.776567     -0.355987
  O       0.890024     -2.492745     -0.965526
  H       0.966540     -2.550611     -0.004013
11
Coordinates from ORCA-job opt E -193.365664912434
  C       0.029860      0.007148     -0.026323
  H       0.029522     -0.053524      1.060527
  C       1.199810      0.131985     -0.658214
  H       2.139705      0.168574     -0.116958
  H       1.248164      0.203335     -1.737740
  C      -1.304492     -0.046455     -0.703354
  H      -1.196238      0.020073     -1.786268
  H      -1.820887     -0.980577     -0.470134
  H      -1.945118      0.771837     -0.364182
  O       0.900962     -2.510627     -0.989694
  H       0.922090     -2.562411     -0.023670
11
Coordinates from ORCA-job opt E -193.365668642073
  C       0.033808      0.023866     -0.016998
  H       0.030172     -0.008188      1.071077
  C       1.202600      0.142468     -0.649612
  H       2.137339      0.192727     -0.105036
  H       1.253776      0.187246     -1.732828
  C      -1.298563     -0.053597     -0.696492
  H      -1.187990     -0.008653     -1.780206
  H      -1.811465     -0.985496     -0.445687
  H      -1.946228      0.766673     -0.375651
  O       0.929792     -2.535395     -1.027407
  H       0.860138     -2.572293     -0.057171
11
Coordinates from ORCA-job opt E -193.365653121468
  C       0.029439      0.011530     -0.023466
  H       0.027588     -0.038909      1.063806
  C       1.199732      0.132821     -0.656576
  H       2.140241      0.174743     -0.113245
  H       1.249588      0.192653     -1.737801
  C      -1.304392     -0.046842     -0.701099
  H      -1.195543      0.017191     -1.783998
  H      -1.820132     -0.980917     -0.465391
  H      -1.946917      0.771203     -0.364446
  O       0.918034     -2.519636     -1.002024
  H       0.905739     -2.564479     -0.031771
11
Coordinates from ORCA-job opt E -193.365592757398
  C       0.026459      0.003008     -0.029009
  H       0.025544     -0.062283      1.059266
  C       1.197385      0.127236     -0.663245
  H       2.143704      0.162732     -0.121192
  H       1.244414      0.199725     -1.742206
  C      -1.308683     -0.041138     -0.704376
  H      -1.201308      0.040275     -1.786316
  H      -1.824351     -0.978433     -0.482794
  H      -1.948172      0.773595     -0.354388
  O       0.914176     -2.514051     -0.978379
  H       0.934210     -2.561308     -0.013372
11
Coordinates from ORCA-job opt E -193.365593275879
  C       0.024604     -0.002593     -0.031346
  H       0.024682     -0.075922      1.055819
  C       1.195388      0.122738     -0.665567
  H       2.141766      0.150800     -0.125111
  H       1.241857      0.202651     -1.744220
  C      -1.310956     -0.038038     -0.706160
  H      -1.204018      0.049093     -1.787691
  H      -1.829605     -0.974704     -0.489085
  H      -1.947362      0.776912     -0.351009
  O       0.914142     -2.506454     -0.968377
  H       0.952880     -2.555123     -0.003262
11
Coordinates from ORCA-job opt E -193.365655137131
  C       0.025890      0.003156     -0.028284
  H       0.024295     -0.063644      1.058899
  C       1.196617      0.127708     -0.661461
  H       2.139268      0.160997     -0.118963
  H       1.244995      0.201303     -1.740749
  C      -1.308580     -0.040568     -0.704990
  H      -1.200081      0.034951     -1.787248
  H      -1.827178     -0.975039     -0.478617
  H      -1.946025      0.777685     -0.359345
  O       0.901443     -2.514124     -0.980001
  H       0.952732     -2.563068     -0.015252
11
Coordinates from ORCA-job opt E -193.365664473068
  C       0.026725      0.009239     -0.025029
  H       0.024167     -0.047983      1.062398
  C       1.197707      0.130562     -0.657847
  H       2.138914      0.170137     -0.114700
  H       1.247376      0.195259     -1.737868
  C      -1.306958     -0.042799     -0.702893
  H      -1.197472      0.024500     -1.785576
  H      -1.824197     -0.976471     -0.469941
  H      -1.946595      0.776713     -0.364290
  O       0.906702     -2.521592     -0.993311
  H       0.937010     -2.568207     -0.026956
11
Coordinates from ORCA-job opt E -193.365695463832
  C       0.028461      0.017237     -0.020030
  H       0.024205     -0.026325      1.067400
  C       1.199098      0.134647     -0.652204
  H       2.137962      0.181012     -0.107519
  H       1.250132      0.185757     -1.733196
  C      -1.304043     -0.046812     -0.699651
  H      -1.193236      0.004653     -1.783073
  H      -1.821264     -0.977330     -0.453845
  H      -1.945734      0.776140     -0.373536
  O       0.917919     -2.528982     -1.014704
  H       0.909878     -2.570639     -0.045653
11
Coordinates from ORCA-job opt E -193.365694947709
  C       0.029967      0.022890     -0.015817
  H       0.024807     -0.010439      1.070502
  C       1.200219      0.137183     -0.647105
  H       2.136187      0.188312     -0.101960
  H       1.252550      0.178521     -1.729535
  C      -1.301346     -0.050397     -0.697304
  H      -1.188908     -0.011918     -1.781094
  H      -1.819097     -0.978068     -0.441497
  H      -1.944651      0.775284     -0.381360
  O       0.921351     -2.531067     -1.031577
  H       0.892300     -2.570945     -0.059265
11
Coordinates from ORCA-job opt E -193.365680823933
  C       0.028766      0.016987     -0.019188
  H       0.024932     -0.026276      1.067044
  C       1.198768      0.134406     -0.650969
  H       2.135844      0.178465     -0.107202
  H       1.249895      0.185592     -1.732965
  C      -1.303448     -0.047292     -0.699563
  H      -1.192121      0.001185     -1.783065
  H      -1.822093     -0.976544     -0.451699
  H      -1.944773      0.776696     -0.375288
  O       0.917840     -2.526355     -1.017523
  H       0.909767     -2.567506     -0.045593
11
Coordinates from ORCA-job opt E -193.365669785429
  C       0.027867      0.010873     -0.022219
  H       0.022985     -0.042862      1.065988
  C       1.197901      0.132700     -0.656148
  H       2.137516      0.172043     -0.112392
  H       1.246893      0.194175     -1.736968
  C      -1.305097     -0.044935     -0.701237
  H      -1.194225      0.012474     -1.784394
  H      -1.823703     -0.975770     -0.460528
  H      -1.943729      0.778689     -0.370992
  O       0.913189     -2.523617     -1.002036
  H       0.923781     -2.564412     -0.035086
11
Coordinates from ORCA-job opt E -193.365697642668
  C       0.026983      0.007918     -0.024454
  H       0.023350     -0.050803      1.063072
  C       1.197102      0.131398     -0.657828
  H       2.135924      0.167307     -0.113836
  H       1.246886      0.197862     -1.738370
  C      -1.306302     -0.043013     -0.703048
  H      -1.195858      0.021835     -1.785792
  H      -1.824870     -0.975380     -0.468370
  H      -1.944467      0.778583     -0.366799
  O       0.899776     -2.523566     -0.993517
  H       0.944853     -2.562785     -0.027069
11
Coordinates from ORCA-job opt E -193.365678553929
  C       0.026747      0.010610     -0.022911
  H       0.022812     -0.043131      1.064554
  C       1.196794      0.131188     -0.656611
  H       2.135156      0.169181     -0.112654
  H       1.247060      0.192594     -1.737373
  C      -1.306620     -0.043020     -0.701327
  H      -1.196193      0.016931     -1.784347
  H      -1.826324     -0.973794     -0.462463
  H      -1.944489      0.780311     -0.368693
  O       0.919552     -2.526743     -1.001045
  H       0.928882     -2.564769     -0.033140
11
Coordinates from ORCA-job opt E -193.365659713113
  C       0.025819      0.003603     -0.026180
  H       0.022378     -0.058483      1.061814
  C       1.195699      0.127114     -0.660836
  H       2.136320      0.159472     -0.118772
  H       1.244310      0.198556     -1.741273
  C      -1.308398     -0.040744     -0.703328
  H      -1.199045      0.030849     -1.785752
  H      -1.829036     -0.973322     -0.473810
  H      -1.944373      0.780300     -0.361484
  O       0.918050     -2.520137     -0.986461
  H       0.941653     -2.557851     -0.019927
11
Coordinates from ORCA-job opt E -193.365665329670
  C       0.026625      0.008804     -0.023483
  H       0.022689     -0.045594      1.064744
  C       1.196582      0.129455     -0.657856
  H       2.136420      0.166574     -0.115533
  H       1.245806      0.193665     -1.738740
  C      -1.307111     -0.042667     -0.701346
  H      -1.197133      0.020973     -1.784203
  H      -1.826910     -0.974177     -0.465410
  H      -1.944685      0.779764     -0.365961
  O       0.928092     -2.525842     -0.997643
  H       0.923002     -2.561597     -0.030581
11
Coordinates from ORCA-job opt E -193.365675661549
  C       0.027275      0.013891     -0.020631
  H       0.022629     -0.032735      1.067816
  C       1.197264      0.131693     -0.654787
  H       2.136162      0.173915     -0.111917
  H       1.247253      0.188308     -1.736091
  C      -1.305897     -0.044499     -0.699302
  H      -1.195118      0.010293     -1.782552
  H      -1.825578     -0.974293     -0.456190
  H      -1.944526      0.780028     -0.371131
  O       0.938395     -2.531724     -1.008977
  H       0.905518     -2.565520     -0.042250
11
Coordinates from ORCA-job opt E -193.365680982834
  C       0.027861      0.019010     -0.017839
  H       0.022455     -0.019654      1.070761
  C       1.197995      0.133677     -0.651740
  H       2.135974      0.180894     -0.108342
  H       1.248888      0.182649     -1.733415
  C      -1.304740     -0.046293     -0.697220
  H      -1.193233     -0.000037     -1.780794
  H      -1.824134     -0.974488     -0.447207
  H      -1.944591      0.780012     -0.375981
  O       0.948963     -2.537678     -1.019929
  H       0.887940     -2.568734     -0.054305
11
Coordinates from ORCA-job opt E -193.365692814188
  C       0.028653      0.024636     -0.014765
  H       0.022311     -0.005336      1.073991
  C       1.199057      0.136080     -0.648235
  H       2.135981      0.189007     -0.104094
  H       1.251040      0.176701     -1.730222
  C      -1.303198     -0.048645     -0.695052
  H      -1.190700     -0.011900     -1.778884
  H      -1.821923     -0.975189     -0.437385
  H      -1.944635      0.779438     -0.381686
  O       0.956448     -2.543692     -1.031780
  H       0.870343     -2.571742     -0.067899
11
Coordinates from ORCA-job opt E -193.365699800748
  C       0.029188      0.030050     -0.011555
  H       0.021781      0.008809      1.077261
  C       1.199898      0.138183     -0.644613
  H       2.135832      0.196858     -0.099870
  H       1.253013      0.170308     -1.726865
  C      -1.301864     -0.050772     -0.692807
  H      -1.188161     -0.024129     -1.776804
  H      -1.820667     -0.975088     -0.427144
  H      -1.944402      0.779600     -0.387845
  O       0.964775     -2.549972     -1.043678
  H       0.853985     -2.574489     -0.082090
11
Coordinates from ORCA-job opt E -193.365704623102
  C       0.029604      0.035310     -0.008535
  H       0.021206      0.022872      1.080275
  C       1.200593      0.139807     -0.641198
  H       2.135649      0.203884     -0.096034
  H       1.254734      0.163366     -1.723660
  C      -1.300686     -0.052648     -0.690592
  H      -1.185940     -0.034767     -1.774646
  H      -1.819221     -0.975150     -0.417959
  H      -1.944508      0.779401     -0.393020
  O       0.974437     -2.556415     -1.054549
  H       0.837510     -2.576302     -0.096094
11
Coordinates from ORCA-job opt E -193.365711029568
  C       0.030459      0.040237     -0.005034
  H       0.020773      0.036627      1.083316
  C       1.201565      0.141922     -0.636943
  H       2.135368      0.211259     -0.091068
  H       1.256834      0.156504     -1.719814
  C      -1.298861     -0.055542     -0.688257
  H      -1.182700     -0.050029     -1.772295
  H      -1.818383     -0.974609     -0.405756
  H      -1.943345      0.779514     -0.400711
  O       0.981492     -2.561136     -1.067684
  H       0.820176     -2.575389     -0.111766
