15
Coordinates from ORCA-job path_back E -270.664841679987
  C           1.93091129955112      1.42769383479428     -0.09015512287533
  C           0.71895601206626      2.30189200711669      0.30211884506872
  C          -0.52798822844773      1.42966385269500      0.03455691833638
  C           0.02997782363955      0.03150188032441      0.02552993699872
  C           1.37271157253805      0.03037818917571     -0.04270035388451
  H           2.28744575896787      1.65172536628496     -1.10237138300018
  H           2.77618245656935      1.56114177618664      0.58711194260222
  H           0.69225343792421      3.24790166837439     -0.23941413543992
  H           0.77307511694856      2.52230013584989      1.36787626500823
  H          -1.30015689117697      1.56463882385723      0.79385171152461
  H          -0.98468913093823      1.65440094851553     -0.93641701215878
  H          -0.59112383586865     -0.85585797230463      0.01174570119603
  H           1.98798616323666     -0.85780740727945     -0.11935288175181
  O           0.82710504941865      0.04429673901924      2.40806781194471
  H           0.82080339557128     -0.92316484260991      2.39260775643093
