15
Coordinates from ORCA-job path_forw E -270.710776742582
  C           1.85495148690422      1.37655052442079      0.08264424361279
  C           0.66297470740220      2.30293399942764      0.36246352117488
  C          -0.55733033385793      1.47118098114593     -0.07948973629649
  C          -0.10902199361826      0.05832769563572      0.12459057034457
  C           1.34176803282625     -0.00760201095440      0.47923379026064
  H           2.08977122245431      1.37656138004773     -0.98586285052685
  H           2.75637387867671      1.64058437214897      0.63607245467706
  H           0.73572574876339      3.25857050605920     -0.15782534841706
  H           0.60396061388931      2.50258232985564      1.43380526202578
  H          -1.46735368415772      1.71779616530309      0.47547244738085
  H          -0.78571352856078      1.65249204139136     -1.13957665573058
  H          -0.74817257609506     -0.80929916517481      0.02766771883931
  H           1.87374154562089     -0.81888175441388     -0.02856788569913
  O           1.54373044085132     -0.13709397242054      1.90458689962312
  H           0.97181443890113     -0.84393009247245      2.21543556873113
