15
Coordinates from ORCA-job neb_MEP E -49.866127542950
  C       1.196479      0.385551     -0.450945
  C      -0.026585      1.262866     -0.154949
  C      -1.247274      0.383703     -0.456865
  C      -0.688444     -1.008458     -0.385968
  C       0.638948     -1.006462     -0.385051
  H       1.603786      0.572164     -1.448110
  H       2.009741      0.550421      0.255567
  H      -0.026585      2.190420     -0.723995
  H      -0.026569      1.532681      0.901268
  H      -2.067877      0.550825      0.241020
  H      -1.647168      0.568538     -1.457412
  H      -1.304229     -1.898500     -0.396552
  H       1.258318     -1.894110     -0.392285
  O       0.291365     -1.086592      2.898460
  H       0.036095     -1.103048      1.955815
15
Coordinates from ORCA-job neb_MEP E -49.865600735322
  C       1.176244      0.379779     -0.407984
  C      -0.047257      1.269118     -0.157112
  C      -1.261110      0.400364     -0.508681
  C      -0.721643     -0.995959     -0.384490
  C       0.604619     -1.006349     -0.335126
  H       1.605727      0.547587     -1.399364
  H       1.974290      0.550045      0.314230
  H      -0.016500      2.199902     -0.720103
  H      -0.086001      1.532378      0.900514
  H      -2.117453      0.590535      0.138490
  H      -1.600598      0.571370     -1.533910
  H      -1.347149     -1.879311     -0.400378
  H       1.216203     -1.898720     -0.297605
  O       0.586111     -1.163844      2.796769
  H       0.034517     -1.096895      1.994750
15
Coordinates from ORCA-job neb_MEP E -49.865052713900
  C       1.175764      0.380956     -0.401483
  C      -0.048907      1.270564     -0.158778
  C      -1.260130      0.400886     -0.517043
  C      -0.721531     -0.995070     -0.381980
  C       0.604628     -1.004794     -0.322928
  H       1.606683      0.544731     -1.393045
  H       1.971497      0.554110      0.322206
  H      -0.015381      2.201045     -0.722173
  H      -0.093363      1.534918      0.898487
  H      -2.122220      0.594421      0.121821
  H      -1.590938      0.569173     -1.545643
  H      -1.346534     -1.878774     -0.397392
  H       1.216344     -1.896079     -0.273378
  O       0.691448     -1.205188      2.682769
  H      -0.067360     -1.070898      2.088561
15
Coordinates from ORCA-job neb_MEP E -49.864842753685
  C       1.178356      0.382394     -0.399139
  C      -0.047539      1.270602     -0.158508
  C      -1.256960      0.398504     -0.516729
  C      -0.716561     -0.996223     -0.376835
  C       0.610045     -1.003891     -0.314239
  H       1.607041      0.543859     -1.392135
  H       1.974011      0.558310      0.323495
  H      -0.015285      2.200599     -0.722866
  H      -0.092936      1.535913      0.898469
  H      -2.120906      0.592653      0.119751
  H      -1.586574      0.564889     -1.546180
  H      -1.340358     -1.880796     -0.391327
  H       1.222690     -1.893956     -0.262247
  O       0.731119     -1.226631      2.556847
  H      -0.146145     -1.046227      2.181643
15
Coordinates from ORCA-job neb_MEP E -49.864926618259
  C       1.180176      0.383103     -0.398313
  C      -0.046272      1.270344     -0.157475
  C      -1.254905      0.396724     -0.514442
  C      -0.713387     -0.997196     -0.372445
  C       0.613849     -1.003550     -0.309374
  H       1.606757      0.543445     -1.392416
  H       1.976410      0.560436      0.323087
  H      -0.015515      2.200025     -0.722466
  H      -0.091221      1.536013      0.899390
  H      -2.119373      0.590934      0.121399
  H      -1.584682      0.561737     -1.544179
  H      -1.336338     -1.882316     -0.385627
  H       1.226994     -1.892959     -0.257774
  O       0.733839     -1.231832      2.491195
  H      -0.176330     -1.034911      2.219440
15
Coordinates from ORCA-job neb_MEP E -49.865108887875
  C       1.181788      0.383643     -0.396484
  C      -0.045146      1.270150     -0.155940
  C      -1.252860      0.394983     -0.511875
  C      -0.710565     -0.998047     -0.366836
  C       0.617530     -1.003244     -0.302281
  H       1.605954      0.541886     -1.392026
  H       1.978787      0.562835      0.323340
  H      -0.015531      2.199297     -0.721875
  H      -0.090015      1.536434      0.900714
  H      -2.118314      0.589620      0.122574
  H      -1.581934      0.558067     -1.542292
  H      -1.332718     -1.883653     -0.379369
  H       1.230993     -1.892138     -0.252004
  O       0.731960     -1.234499      2.420303
  H      -0.199928     -1.025334      2.254051
15
Coordinates from ORCA-job neb_MEP E -49.865448774708
  C       1.184088      0.384499     -0.394854
  C      -0.043339      1.270230     -0.154277
  C      -1.250217      0.392754     -0.507335
  C      -0.706891     -0.999192     -0.359284
  C       0.622697     -1.002804     -0.294021
  H       1.604818      0.540118     -1.392286
  H       1.982687      0.565890      0.322453
  H      -0.015704      2.198593     -0.721909
  H      -0.087265      1.537235      0.902054
  H      -2.116569      0.587868      0.125979
  H      -1.578782      0.553112     -1.538508
  H      -1.327764     -1.885672     -0.370994
  H       1.236782     -1.891062     -0.248673
  O       0.719403     -1.232911      2.340463
  H      -0.223942     -1.018657      2.291193
15
Coordinates from ORCA-job neb_MEP E -49.865998934515
  C       1.186662      0.385168     -0.389767
  C      -0.041056      1.270038     -0.149483
  C      -1.246450      0.389481     -0.499359
  C      -0.703007     -1.000625     -0.344702
  C       0.629887     -1.002001     -0.275028
  H       1.601285      0.533851     -1.391091
  H       1.988207      0.571241      0.322547
  H      -0.015687      2.196475     -0.720224
  H      -0.084001      1.538995      0.906269
  H      -2.115223      0.587309      0.129895
  H      -1.572195      0.543139     -1.532769
  H      -1.321343     -1.888335     -0.356356
  H       1.244167     -1.889570     -0.240313
  O       0.693646     -1.225987      2.221010
  H      -0.244889     -1.009179      2.319371
15
Coordinates from ORCA-job neb_MEP E -49.872720427944
  C       1.182066      0.375510     -0.331157
  C      -0.041290      1.271112     -0.133620
  C      -1.243011      0.387364     -0.492806
  C      -0.724452     -0.999316     -0.318918
  C       0.638833     -1.002400     -0.048210
  H       1.565756      0.453716     -1.356717
  H       2.003444      0.606210      0.339823
  H      -0.004947      2.187664     -0.719778
  H      -0.097645      1.550502      0.916776
  H      -2.119942      0.590298      0.125333
  H      -1.561777      0.535670     -1.530178
  H      -1.331365     -1.891423     -0.361026
  H       1.243929     -1.884345     -0.200914
  O       0.690897     -1.170630      1.883667
  H      -0.200496     -1.009932      2.227725
15
Coordinates from ORCA-job neb_MEP E -49.914627269332
  C       1.137892      0.357131     -0.207737
  C      -0.079850      1.265670     -0.076717
  C      -1.238416      0.387763     -0.555176
  C      -0.804782     -0.987829     -0.195195
  C       0.632921     -1.029647      0.188691
  H       1.464325      0.329326     -1.249329
  H       1.986394      0.660792      0.402253
  H       0.016369      2.191342     -0.641714
  H      -0.232204      1.542681      0.968403
  H      -2.200659      0.663621     -0.119229
  H      -1.363483      0.478929     -1.642078
  H      -1.442785     -1.860292     -0.207770
  H       1.184682     -1.821817     -0.317925
  O       0.813917     -1.310839      1.577949
  H       0.125680     -0.866830      2.075573
