15
Coordinates from ORCA-job neb E -49.864849841791
  C       1.178356      0.382394     -0.399139
  C      -0.047539      1.270602     -0.158508
  C      -1.256960      0.398504     -0.516729
  C      -0.716561     -0.996223     -0.376835
  C       0.610045     -1.003891     -0.314239
  H       1.607041      0.543859     -1.392135
  H       1.974011      0.558310      0.323495
  H      -0.015285      2.200599     -0.722866
  H      -0.092936      1.535913      0.898469
  H      -2.120906      0.592653      0.119751
  H      -1.586574      0.564889     -1.546180
  H      -1.340358     -1.880796     -0.391327
  H       1.222690     -1.893956     -0.262247
  O       0.731119     -1.226631      2.556847
  H      -0.146145     -1.046227      2.181643
15
Coordinates from ORCA-job neb E -49.864866990423
  C       1.178792      0.381139     -0.399072
  C      -0.046842      1.269243     -0.156746
  C      -1.256651      0.397995     -0.515680
  C      -0.716523     -0.997052     -0.378389
  C       0.610130     -1.005122     -0.316217
  H       1.607405      0.544043     -1.391859
  H       1.974608      0.555723      0.323728
  H      -0.014577      2.200110     -0.719692
  H      -0.091790      1.532877      0.900650
  H      -2.120084      0.591239      0.121741
  H      -1.586994      0.566180     -1.544608
  H      -1.340520     -1.881430     -0.393727
  H       1.222587     -1.895409     -0.265835
  O       0.731347     -1.206440      2.555746
  H      -0.150888     -1.053096      2.179960
15
Coordinates from ORCA-job neb E -49.864880679186
  C       1.179487      0.380391     -0.399891
  C      -0.045907      1.268255     -0.155465
  C      -1.256151      0.397551     -0.514241
  C      -0.716052     -0.997662     -0.379373
  C       0.610696     -1.005909     -0.318128
  H       1.607499      0.544326     -1.392775
  H       1.975803      0.554077      0.322598
  H      -0.014074      2.199869     -0.717231
  H      -0.089859      1.530234      0.902324
  H      -2.118707      0.589919      0.124599
  H      -1.587879      0.567137     -1.542500
  H      -1.340071     -1.881992     -0.395319
  H       1.223125     -1.896316     -0.269231
  O       0.728699     -1.187779      2.556902
  H      -0.156609     -1.062101      2.177731
15
Coordinates from ORCA-job neb E -49.864894640251
  C       1.180192      0.379735     -0.400673
  C      -0.044977      1.267433     -0.154486
  C      -1.255676      0.397167     -0.512750
  C      -0.715571     -0.998190     -0.380276
  C       0.611277     -1.006619     -0.320097
  H       1.607867      0.544609     -1.393546
  H       1.976805      0.552556      0.321722
  H      -0.013580      2.199560     -0.715431
  H      -0.087894      1.528106      0.903593
  H      -2.117203      0.588691      0.127721
  H      -1.589077      0.568047     -1.540260
  H      -1.339577     -1.882502     -0.396949
  H       1.223674     -1.897128     -0.272631
  O       0.725707     -1.169665      2.558177
  H      -0.161966     -1.071800      2.175888
15
Coordinates from ORCA-job neb E -49.864915887199
  C       1.181391      0.378986     -0.402129
  C      -0.043487      1.266450     -0.153359
  C      -1.254897      0.396620     -0.510296
  C      -0.714620     -0.998875     -0.381487
  C       0.612381     -1.007483     -0.323002
  H       1.608517      0.545047     -1.395040
  H       1.978506      0.550705      0.320064
  H      -0.012931      2.199100     -0.713484
  H      -0.084679      1.525584      0.905061
  H      -2.114611      0.586831      0.132979
  H      -1.591299      0.569280     -1.536542
  H      -1.338505     -1.883227     -0.398977
  H       1.224815     -1.898127     -0.277920
  O       0.719491     -1.143563      2.560585
  H      -0.170072     -1.087326      2.173546
15
Coordinates from ORCA-job neb E -49.864945516262
  C       1.183189      0.378006     -0.404244
  C      -0.041286      1.265224     -0.152018
  C      -1.253747      0.395855     -0.506547
  C      -0.713291     -0.999761     -0.383090
  C       0.613971     -1.008672     -0.327449
  H       1.609829      0.545751     -1.397071
  H       1.980887      0.548049      0.317889
  H      -0.011991      2.198340     -0.711429
  H      -0.079913      1.522661      0.906719
  H      -2.110570      0.584157      0.141087
  H      -1.594841      0.570946     -1.530837
  H      -1.336930     -1.884191     -0.401984
  H       1.226471     -1.899471     -0.285681
  O       0.708794     -1.105236      2.563910
  H      -0.180572     -1.111658      2.170744
15
Coordinates from ORCA-job neb E -49.864982651223
  C       1.186199      0.376738     -0.407669
  C      -0.037743      1.263569     -0.150311
  C      -1.251718      0.394457     -0.500045
  C      -0.710812     -1.001149     -0.385493
  C       0.616951     -1.010449     -0.334250
  H       1.612131      0.546918     -1.400372
  H       1.984839      0.544352      0.314373
  H      -0.010771      2.196851     -0.709542
  H      -0.072208      1.519681      0.908587
  H      -2.103531      0.579468      0.155036
  H      -1.600910      0.573257     -1.520967
  H      -1.334045     -1.885700     -0.406037
  H       1.229914     -1.901330     -0.298746
  O       0.687144     -1.048366      2.567185
  H      -0.195441     -1.148296      2.168251
15
Coordinates from ORCA-job neb E -49.865026743421
  C       1.191348      0.375672     -0.414266
  C      -0.031747      1.261457     -0.148489
  C      -1.248043      0.391741     -0.488272
  C      -0.705199     -1.003460     -0.387578
  C       0.623317     -1.012868     -0.344986
  H       1.614953      0.549674     -1.407258
  H       1.992015      0.540469      0.306690
  H      -0.009535      2.194107     -0.708949
  H      -0.058503      1.517572      0.910279
  H      -2.091211      0.571470      0.179366
  H      -1.611255      0.575395     -1.503425
  H      -1.327703     -1.888440     -0.409989
  H       1.237908     -1.902917     -0.319998
  O       0.641235     -0.973181      2.569718
  H      -0.217580     -1.196692      2.167157
15
Coordinates from ORCA-job neb E -49.865054882955
  C       1.194239      0.375767     -0.419616
  C      -0.027967      1.261126     -0.148142
  C      -1.246839      0.390483     -0.481434
  C      -0.699981     -1.005131     -0.387834
  C       0.627430     -1.013240     -0.351056
  H       1.614545      0.551730     -1.413646
  H       1.996962      0.539891      0.298846
  H      -0.008835      2.193029     -0.709948
  H      -0.048245      1.517938      0.911026
  H      -2.085484      0.567613      0.192899
  H      -1.618033      0.575952     -1.493332
  H      -1.320687     -1.891553     -0.410199
  H       1.242497     -1.902605     -0.332290
  O       0.607524     -0.945770      2.581831
  H      -0.227128     -1.215228      2.162896
15
Coordinates from ORCA-job neb E -49.865015872041
  C       1.193614      0.371990     -0.418051
  C      -0.026967      1.261529     -0.146470
  C      -1.250734      0.391653     -0.480866
  C      -0.703741     -1.007365     -0.394024
  C       0.620777     -1.015893     -0.362623
  H       1.619460      0.551983     -1.408943
  H       1.994443      0.528416      0.305865
  H      -0.004917      2.192792     -0.709118
  H      -0.044592      1.519440      0.912907
  H      -2.087538      0.567080      0.195918
  H      -1.623830      0.580754     -1.491139
  H      -1.318885     -1.895480     -0.424659
  H       1.231077     -1.908549     -0.343314
  O       0.584548     -0.886166      2.624875
  H      -0.182715     -1.252185      2.139642
15
Coordinates from ORCA-job neb E -49.865054203144
  C       1.191963      0.373324     -0.416167
  C      -0.029754      1.261450     -0.148221
  C      -1.250598      0.392133     -0.485479
  C      -0.703037     -1.005702     -0.392710
  C       0.621819     -1.014311     -0.353935
  H       1.616666      0.550718     -1.408042
  H       1.991920      0.534580      0.305678
  H      -0.007156      2.192870     -0.710639
  H      -0.051567      1.519662      0.911238
  H      -2.091019      0.569882      0.186564
  H      -1.618754      0.579069     -1.498093
  H      -1.321461     -1.893412     -0.417739
  H       1.232918     -1.906325     -0.335638
  O       0.612459     -0.941914      2.617246
  H      -0.194399     -1.212022      2.145936
15
Coordinates from ORCA-job neb E -49.865077132772
  C       1.190146      0.371804     -0.412746
  C      -0.031893      1.260655     -0.148402
  C      -1.252557      0.392854     -0.488995
  C      -0.707055     -1.005341     -0.395808
  C       0.618171     -1.015073     -0.355049
  H       1.618924      0.550454     -1.402632
  H       1.987599      0.531480      0.312407
  H      -0.006934      2.191805     -0.711127
  H      -0.056874      1.519860      0.910426
  H      -2.094358      0.571249      0.180845
  H      -1.617580      0.580712     -1.502490
  H      -1.325961     -1.892652     -0.423752
  H       1.227684     -1.908401     -0.335159
  O       0.623817     -0.947199      2.634673
  H      -0.173130     -1.202207      2.137807
15
Coordinates from ORCA-job neb E -49.865071510252
  C       1.191275      0.369221     -0.408412
  C      -0.030637      1.257343     -0.145349
  C      -1.249750      0.391040     -0.484565
  C      -0.707776     -1.006494     -0.397695
  C       0.620161     -1.017969     -0.358119
  H       1.624682      0.551292     -1.395665
  H       1.984864      0.525654      0.320758
  H      -0.005789      2.187583     -0.709553
  H      -0.057466      1.517736      0.912092
  H      -2.088579      0.567072      0.189405
  H      -1.618695      0.582613     -1.495968
  H      -1.330823     -1.891615     -0.430206
  H       1.231909     -1.910627     -0.343113
  O       0.624044     -0.896168      2.583390
  H      -0.187419     -1.226680      2.162998
15
Coordinates from ORCA-job neb E -49.865095166091
  C       1.192920      0.366468     -0.410136
  C      -0.028006      1.255824     -0.143101
  C      -1.250325      0.390206     -0.480775
  C      -0.706169     -1.008885     -0.405563
  C       0.620107     -1.020322     -0.363656
  H       1.626784      0.551216     -1.396716
  H       1.987253      0.519206      0.319979
  H      -0.003385      2.185990     -0.707542
  H      -0.051078      1.516007      0.915263
  H      -2.085611      0.561867      0.199127
  H      -1.625417      0.587288     -1.488903
  H      -1.327829     -1.894253     -0.438363
  H       1.230341     -1.913434     -0.360079
  O       0.592916     -0.846362      2.601721
  H      -0.172499     -1.250816      2.158745
15
Coordinates from ORCA-job neb E -49.865107954817
  C       1.194610      0.366072     -0.412883
  C      -0.026000      1.254329     -0.141207
  C      -1.248184      0.389177     -0.476808
  C      -0.705468     -1.008859     -0.403848
  C       0.622058     -1.021350     -0.368361
  H       1.626758      0.553209     -1.399718
  H       1.990408      0.517262      0.316290
  H      -0.003297      2.185171     -0.704617
  H      -0.047241      1.512609      0.917137
  H      -2.081058      0.559560      0.205979
  H      -1.626043      0.587143     -1.483716
  H      -1.328442     -1.893085     -0.441427
  H       1.233818     -1.913678     -0.361969
  O       0.573124     -0.814681      2.588873
  H      -0.175044     -1.272878      2.166276
15
Coordinates from ORCA-job neb E -49.865132497710
  C       1.198772      0.367189     -0.421557
  C      -0.020707      1.253560     -0.139594
  C      -1.244147      0.387578     -0.469149
  C      -0.698540     -1.009967     -0.403029
  C       0.628652     -1.021259     -0.371558
  H       1.622521      0.554977     -1.411899
  H       2.000080      0.519891      0.300976
  H      -0.002730      2.185809     -0.700929
  H      -0.035124      1.507907      0.920139
  H      -2.072412      0.554732      0.220184
  H      -1.629519      0.587530     -1.472855
  H      -1.322786     -1.893899     -0.433790
  H       1.242814     -1.911858     -0.374487
  O       0.521383     -0.777577      2.582066
  H      -0.188257     -1.304613      2.175480
15
Coordinates from ORCA-job neb E -49.865143654763
  C       1.200824      0.366003     -0.426781
  C      -0.017387      1.252102     -0.137622
  C      -1.242502      0.386820     -0.463766
  C      -0.696776     -1.011213     -0.401717
  C       0.630812     -1.023412     -0.381376
  H       1.621206      0.558043     -1.417719
  H       2.004538      0.516094      0.293842
  H      -0.001595      2.185410     -0.697212
  H      -0.027378      1.503885      0.922843
  H      -2.067490      0.552765      0.229531
  H      -1.631670      0.588430     -1.465640
  H      -1.320585     -1.895013     -0.438041
  H       1.245100     -1.913974     -0.384886
  O       0.475136     -0.734863      2.593631
  H      -0.172234     -1.331077      2.174913
15
Coordinates from ORCA-job neb E -49.865167827634
  C       1.202012      0.364417     -0.428440
  C      -0.015661      1.250149     -0.136166
  C      -1.241741      0.385929     -0.461264
  C      -0.694939     -1.012650     -0.406381
  C       0.632100     -1.024249     -0.385158
  H       1.621109      0.558575     -1.419550
  H       2.006335      0.513241      0.291138
  H      -0.000483      2.183886     -0.694999
  H      -0.024368      1.501309      0.924560
  H      -2.064691      0.549763      0.235000
  H      -1.633822      0.590944     -1.461245
  H      -1.319420     -1.896618     -0.439695
  H       1.245425     -1.915645     -0.398740
  O       0.448308     -0.712492      2.606848
  H      -0.160164     -1.336560      2.174090
15
Coordinates from ORCA-job neb E -49.865187297683
  C       1.206748      0.365054     -0.439269
  C      -0.009670      1.247434     -0.133105
  C      -1.236055      0.383048     -0.450986
  C      -0.690552     -1.013413     -0.402101
  C       0.638148     -1.024552     -0.395266
  H       1.616481      0.562892     -1.433639
  H       2.018123      0.513015      0.273595
  H      -0.000532      2.183683     -0.687966
  H      -0.011825      1.493981      0.928200
  H      -2.053176      0.544298      0.252086
  H      -1.635240      0.589020     -1.448034
  H      -1.316219     -1.895696     -0.437155
  H       1.253467     -1.914602     -0.408557
  O       0.373958     -0.666999      2.604395
  H      -0.153654     -1.367162      2.177802
15
Coordinates from ORCA-job neb E -49.865211959378
  C       1.212491      0.367894     -0.452506
  C      -0.002516      1.247296     -0.132065
  C      -1.230464      0.380665     -0.439551
  C      -0.678583     -1.014846     -0.396880
  C       0.648887     -1.022746     -0.397680
  H       1.608284      0.564966     -1.452661
  H       2.032338      0.520073      0.248404
  H      -0.000955      2.185142     -0.684365
  H       0.005727      1.489978      0.930964
  H      -2.041719      0.539251      0.271402
  H      -1.639699      0.586785     -1.432592
  H      -1.304362     -1.898539     -0.421395
  H       1.267233     -1.910610     -0.423415
  O       0.305384     -0.651383      2.597695
  H      -0.182046     -1.383927      2.184645
15
Coordinates from ORCA-job neb E -49.865212616834
  C       1.216530      0.370641     -0.462768
  C       0.003409      1.247737     -0.131252
  C      -1.224763      0.379039     -0.430167
  C      -0.673806     -1.015957     -0.388476
  C       0.654865     -1.021664     -0.403633
  H       1.602934      0.568112     -1.466555
  H       2.043281      0.524230      0.230845
  H      -0.000809      2.187132     -0.680931
  H       0.018889      1.487101      0.932125
  H      -2.030738      0.536903      0.286363
  H      -1.640243      0.583358     -1.420986
  H      -1.299298     -1.898687     -0.409154
  H       1.275048     -1.908038     -0.428108
  O       0.235193     -0.626092      2.585299
  H      -0.180490     -1.413815      2.187397
15
Coordinates from ORCA-job neb E -49.865229193715
  C       1.215241      0.368217     -0.459023
  C       0.001447      1.247022     -0.131074
  C      -1.227750      0.379706     -0.432485
  C      -0.673626     -1.016295     -0.392679
  C       0.653355     -1.022741     -0.404769
  H       1.605240      0.567631     -1.461010
  H       2.039091      0.519538      0.237212
  H      -0.000479      2.185371     -0.682473
  H       0.014721      1.488925      0.932031
  H      -2.035115      0.537924      0.282815
  H      -1.641887      0.585605     -1.423501
  H      -1.297426     -1.901391     -0.416871
  H       1.270882     -1.911174     -0.433838
  O       0.252185     -0.631462      2.602729
  H      -0.175878     -1.396873      2.182937
15
Coordinates from ORCA-job neb E -49.865222747021
  C       1.213039      0.369715     -0.452659
  C      -0.001853      1.247866     -0.132550
  C      -1.227940      0.380387     -0.438041
  C      -0.680065     -1.014057     -0.392845
  C       0.649229     -1.020709     -0.396063
  H       1.608760      0.565341     -1.453205
  H       2.033572      0.522579      0.247956
  H      -0.001365      2.185578     -0.685082
  H       0.005544      1.490868      0.928884
  H      -2.038119      0.539447      0.273444
  H      -1.637327      0.584715     -1.431345
  H      -1.307236     -1.896133     -0.414499
  H       1.267908     -1.908259     -0.417958
  O       0.298339     -0.648215      2.573410
  H      -0.182486     -1.399124      2.190553
15
Coordinates from ORCA-job neb E -49.865232852351
  C       1.212522      0.369816     -0.453101
  C      -0.002279      1.249813     -0.133988
  C      -1.229921      0.382308     -0.439794
  C      -0.679793     -1.013445     -0.391131
  C       0.647851     -1.019609     -0.394740
  H       1.607973      0.563968     -1.454004
  H       2.033544      0.522409      0.246617
  H      -0.000776      2.187191     -0.687099
  H       0.005655      1.493349      0.928369
  H      -2.041443      0.543335      0.270100
  H      -1.637747      0.584917     -1.434145
  H      -1.304647     -1.897302     -0.413900
  H       1.264752     -1.908342     -0.412386
  O       0.297450     -0.655449      2.586977
  H      -0.173141     -1.402959      2.182226
15
Coordinates from ORCA-job neb E -49.865239185987
  C       1.217303      0.371284     -0.464716
  C       0.004131      1.248809     -0.132273
  C      -1.224638      0.380151     -0.428647
  C      -0.669701     -1.015164     -0.385411
  C       0.657721     -1.020297     -0.402519
  H       1.600892      0.567849     -1.469773
  H       2.045112      0.526432      0.225688
  H      -0.001163      2.187344     -0.683276
  H       0.020900      1.489528      0.930938
  H      -2.030499      0.539619      0.287999
  H      -1.640731      0.582962     -1.419481
  H      -1.294332     -1.900001     -0.402416
  H       1.276989     -1.907665     -0.431485
  O       0.225076     -0.633552      2.587151
  H      -0.187060     -1.417299      2.188222
15
Coordinates from ORCA-job neb E -49.865244947570
  C       1.217018      0.371991     -0.463782
  C       0.003844      1.249663     -0.133220
  C      -1.224573      0.380546     -0.429244
  C      -0.671440     -1.014448     -0.384728
  C       0.656354     -1.019078     -0.400146
  H       1.601816      0.566999     -1.468726
  H       2.044548      0.527271      0.227565
  H      -0.000990      2.187748     -0.685081
  H       0.019861      1.491411      0.929452
  H      -2.030402      0.540408      0.287193
  H      -1.640279      0.582322     -1.420474
  H      -1.296073     -1.898719     -0.401560
  H       1.275228     -1.906539     -0.425712
  O       0.228168     -0.635476      2.580051
  H      -0.183079     -1.424098      2.188412
15
Coordinates from ORCA-job neb E -49.865257294452
  C       1.209734      0.368574     -0.443813
  C      -0.005393      1.253275     -0.138298
  C      -1.232868      0.387034     -0.443999
  C      -0.686487     -1.010632     -0.389764
  C       0.642552     -1.019311     -0.389136
  H       1.615605      0.560329     -1.440937
  H       2.024230      0.519168      0.263585
  H       0.001118      2.186170     -0.698870
  H      -0.003994      1.506710      0.921423
  H      -2.045636      0.552543      0.263386
  H      -1.637269      0.587139     -1.440299
  H      -1.312383     -1.893582     -0.410049
  H       1.255011     -1.911950     -0.404609
  O       0.297656     -0.652786      2.574815
  H      -0.121876     -1.432681      2.176564
15
Coordinates from ORCA-job neb E -49.865263636058
  C       1.212211      0.369065     -0.450106
  C      -0.001642      1.252257     -0.136972
  C      -1.230275      0.385391     -0.438314
  C      -0.682321     -1.011877     -0.388409
  C       0.646240     -1.019916     -0.393437
  H       1.612132      0.562375     -1.449446
  H       2.030430      0.520632      0.253242
  H       0.001683      2.186037     -0.696053
  H       0.004948      1.503831      0.923456
  H      -2.039813      0.549328      0.272845
  H      -1.639208      0.586148     -1.432500
  H      -1.307905     -1.894969     -0.407472
  H       1.259683     -1.911552     -0.414402
  O       0.254191     -0.636902      2.580086
  H      -0.120354     -1.439849      2.177482
15
Coordinates from ORCA-job neb E -49.865267001894
  C       1.211775      0.366200     -0.448160
  C      -0.002118      1.249581     -0.134927
  C      -1.231661      0.384331     -0.438702
  C      -0.683228     -1.013028     -0.393588
  C       0.644746     -1.022651     -0.397971
  H       1.614123      0.563413     -1.445734
  H       2.028115      0.515175      0.257806
  H       0.002513      2.183536     -0.693683
  H       0.003674      1.501406      0.925472
  H      -2.041201      0.546809      0.272706
  H      -1.640620      0.588285     -1.432131
  H      -1.308658     -1.896497     -0.417169
  H       1.256955     -1.915017     -0.423446
  O       0.252333     -0.626381      2.596816
  H      -0.106746     -1.425162      2.172708
15
Coordinates from ORCA-job neb E -49.865276736244
  C       1.215260      0.366940     -0.456789
  C       0.002453      1.248027     -0.132593
  C      -1.227824      0.381981     -0.431082
  C      -0.677268     -1.014289     -0.390983
  C       0.650575     -1.023293     -0.403817
  H       1.609336      0.565999     -1.457213
  H       2.036543      0.517251      0.242938
  H       0.002307      2.183875     -0.688325
  H       0.014784      1.495874      0.929114
  H      -2.033516      0.541899      0.285511
  H      -1.642750      0.586869     -1.421987
  H      -1.302999     -1.897692     -0.414174
  H       1.265168     -1.913827     -0.434003
  O       0.202503     -0.608407      2.592170
  H      -0.114573     -1.431206      2.181233
15
Coordinates from ORCA-job neb E -49.865287012568
  C       1.215681      0.367064     -0.457361
  C       0.002967      1.248172     -0.132723
  C      -1.227518      0.382101     -0.430605
  C      -0.677174     -1.014167     -0.391017
  C       0.650545     -1.022625     -0.403470
  H       1.609331      0.565610     -1.458075
  H       2.037585      0.517224      0.241792
  H       0.002645      2.184098     -0.688292
  H       0.015699      1.495759      0.928820
  H      -2.032537      0.541643      0.286640
  H      -1.643105      0.587153     -1.421154
  H      -1.303105     -1.897404     -0.412164
  H       1.264880     -1.913337     -0.434040
  O       0.191575     -0.605624      2.590488
  H      -0.107470     -1.435668      2.181160
15
Coordinates from ORCA-job neb E -49.865294273022
  C       1.216289      0.366622     -0.457850
  C       0.004799      1.250440     -0.134420
  C      -1.227009      0.384947     -0.427871
  C      -0.679993     -1.012859     -0.384839
  C       0.648645     -1.022581     -0.404044
  H       1.611855      0.564133     -1.458046
  H       2.038433      0.514173      0.242243
  H       0.004968      2.185284     -0.691874
  H       0.019278      1.500297      0.927120
  H      -2.029422      0.546054      0.291854
  H      -1.644396      0.588364     -1.418036
  H      -1.306110     -1.894636     -0.404013
  H       1.261239     -1.914857     -0.428694
  O       0.118910     -0.587885      2.570444
  H      -0.037487     -1.467497      2.178025
15
Coordinates from ORCA-job neb E -49.865314705731
  C       1.215997      0.365003     -0.457348
  C       0.004033      1.247274     -0.131619
  C      -1.227558      0.383055     -0.429752
  C      -0.678268     -1.013778     -0.391424
  C       0.649250     -1.023409     -0.405483
  H       1.610304      0.564907     -1.457551
  H       2.038143      0.512637      0.241793
  H       0.004676      2.183542     -0.686590
  H       0.016845      1.494287      0.929911
  H      -2.031765      0.542360      0.288380
  H      -1.643294      0.589559     -1.419879
  H      -1.305296     -1.896629     -0.411135
  H       1.261931     -1.915418     -0.439209
  O       0.144687     -0.588178      2.589523
  H      -0.059685     -1.445213      2.180385
15
Coordinates from ORCA-job neb E -49.865320906882
  C       1.216391      0.365285     -0.458196
  C       0.004733      1.247570     -0.131857
  C      -1.227093      0.383094     -0.428457
  C      -0.678072     -1.013566     -0.390069
  C       0.649495     -1.023158     -0.405440
  H       1.610114      0.564834     -1.458720
  H       2.039145      0.512950      0.240453
  H       0.004832      2.183756     -0.686987
  H       0.018696      1.494722      0.929644
  H      -2.030486      0.542421      0.290498
  H      -1.643801      0.589137     -1.418285
  H      -1.304915     -1.896247     -0.409331
  H       1.262289     -1.915028     -0.438051
  O       0.132484     -0.586313      2.585144
  H      -0.053813     -1.449456      2.179656
15
Coordinates from ORCA-job neb E -49.865327247232
  C       1.217032      0.364464     -0.459029
  C       0.005777      1.246855     -0.131198
  C      -1.226748      0.382595     -0.426423
  C      -0.677649     -1.013973     -0.390377
  C       0.649740     -1.023967     -0.407239
  H       1.610343      0.564987     -1.459509
  H       2.040313      0.511177      0.239337
  H       0.005341      2.183137     -0.686177
  H       0.021240      1.494000      0.930339
  H      -2.028834      0.541176      0.294084
  H      -1.645129      0.589533     -1.415351
  H      -1.304325     -1.896702     -0.409415
  H       1.262379     -1.915848     -0.441268
  O       0.110325     -0.579976      2.587081
  H      -0.039805     -1.447457      2.175145
15
Coordinates from ORCA-job neb E -49.865333405860
  C       1.217293      0.364581     -0.459691
  C       0.006598      1.247563     -0.131579
  C      -1.226186      0.383462     -0.425464
  C      -0.678077     -1.013532     -0.387803
  C       0.649617     -1.023814     -0.406287
  H       1.610104      0.564161     -1.460555
  H       2.041166      0.511518      0.237916
  H       0.006044      2.183635     -0.686878
  H       0.022733      1.495001      0.930012
  H      -2.027883      0.542954      0.295255
  H      -1.644644      0.589438     -1.414584
  H      -1.305271     -1.895762     -0.404210
  H       1.262135     -1.915892     -0.440545
  O       0.086042     -0.578724      2.581631
  H      -0.019669     -1.454590      2.172783
15
Coordinates from ORCA-job neb E -49.865336269344
  C       1.217191      0.364490     -0.459858
  C       0.006727      1.247647     -0.131494
  C      -1.226113      0.383906     -0.425486
  C      -0.678254     -1.013066     -0.386794
  C       0.649406     -1.023678     -0.405776
  H       1.609554      0.563763     -1.460978
  H       2.041383      0.511648      0.237312
  H       0.006352      2.183778     -0.686696
  H       0.022759      1.494904      0.929990
  H      -2.028158      0.544008      0.294681
  H      -1.643891      0.589312     -1.415005
  H      -1.305711     -1.895210     -0.403156
  H       1.261673     -1.915956     -0.439877
  O       0.079160     -0.579119      2.580480
  H      -0.012078     -1.456427      2.172658
15
Coordinates from ORCA-job neb E -49.865342175737
  C       1.216689      0.364369     -0.458947
  C       0.006627      1.248451     -0.132364
  C      -1.226674      0.385195     -0.426263
  C      -0.679737     -1.011883     -0.385390
  C       0.647801     -1.023007     -0.403211
  H       1.609736      0.562148     -1.460115
  H       2.040675      0.511798      0.238583
  H       0.007316      2.184109     -0.688420
  H       0.022310      1.496684      0.928747
  H      -2.029432      0.546787      0.292681
  H      -1.643106      0.589201     -1.416639
  H      -1.307562     -1.893674     -0.400508
  H       1.259112     -1.915895     -0.435441
  O       0.067056     -0.583126      2.579155
  H       0.009188     -1.461156      2.168131
15
Coordinates from ORCA-job neb E -49.865342714426
  C       1.216938      0.364036     -0.459389
  C       0.007140      1.248290     -0.132183
  C      -1.226351      0.385064     -0.425125
  C      -0.679633     -1.011789     -0.384752
  C       0.647956     -1.023429     -0.403745
  H       1.609681      0.561948     -1.460629
  H       2.041165      0.511248      0.237929
  H       0.007491      2.183944     -0.688259
  H       0.023746      1.496668      0.928841
  H      -2.028516      0.546499      0.294452
  H      -1.643520      0.589146     -1.415203
  H      -1.307667     -1.893433     -0.399842
  H       1.259465     -1.916186     -0.435970
  O       0.054397     -0.581937      2.578298
  H       0.017708     -1.460070      2.165577
15
Coordinates from ORCA-job neb E -49.865344669999
  C       1.217172      0.364324     -0.460030
  C       0.007537      1.248770     -0.132613
  C      -1.226081      0.385427     -0.424761
  C      -0.679460     -1.011463     -0.383499
  C       0.648096     -1.022943     -0.402806
  H       1.609313      0.561303     -1.461699
  H       2.041930      0.511943      0.236523
  H       0.007651      2.184322     -0.688809
  H       0.024743      1.497215      0.928390
  H      -2.028066      0.547178      0.294957
  H      -1.643447      0.589000     -1.414858
  H      -1.307701     -1.893020     -0.396825
  H       1.259822     -1.915581     -0.435070
  O       0.045266     -0.584182      2.577178
  H       0.023224     -1.462295      2.163922
15
Coordinates from ORCA-job neb E -49.865343129735
  C       1.217256      0.364404     -0.460235
  C       0.007598      1.248758     -0.132639
  C      -1.225978      0.385327     -0.424519
  C      -0.679223     -1.011491     -0.383355
  C       0.648334     -1.022937     -0.403080
  H       1.609270      0.561498     -1.461929
  H       2.042097      0.512022      0.236228
  H       0.007511      2.184284     -0.688888
  H       0.024951      1.497267      0.928306
  H      -2.027784      0.546985      0.295421
  H      -1.643608      0.588900     -1.414502
  H      -1.307332     -1.893149     -0.396896
  H       1.260149     -1.915503     -0.435171
  O       0.045889     -0.584200      2.577242
  H       0.020870     -1.462167      2.164018
