15
Coordinates from ORCA-job opt E -49.914622047048
  C          -0.11715697758975      1.19263268832845     -0.17143296193609
  C          -0.82121836736972      0.36462158442065      0.89823390318386
  C          -0.93631121058057     -1.02291382541198      0.26308927735477
  C           0.24883614929247     -1.09594537548283     -0.63131449426254
  C           0.89318709128148      0.23512925146430     -0.80205466486766
  H          -0.83790794445153      1.49688997612457     -0.93313033663367
  H           0.36837523246812      2.08922782861931      0.20886200730647
  H          -1.78303714309362      0.78009235950691      1.19425683834720
  H          -0.20526336987566      0.31003420708435      1.79814170666703
  H          -0.97438063210623     -1.83297490763187      0.99411972311995
  H          -1.86308834980469     -1.10052363676910     -0.32031368456403
  H           0.60916805310491     -1.99681477853458     -1.10774821039755
  H           1.08797007400129      0.48166150453676     -1.84604096209187
  O           2.17925859852522      0.29704711172021     -0.18234593609502
  H           2.15157079619827     -0.19816398797517      0.63767679486916
