11
Coordinates from ORCA-job opt E -37.261697425136
  C          -0.59227978957574      1.30405556519279     -0.20841609352692
  C          -0.82768759415444      0.18343263745896      0.46023686895118
  H          -0.36502154131078      2.22990864373634      0.30351702452431
  H          -0.63680402782293      1.33470526550799     -1.29117674173590
  C          -1.16220624078086     -1.13041098122409     -0.15799308823513
  H          -2.13352505605979     -1.48001840169281      0.19212276797736
  H          -1.19157726656679     -1.06423895902535     -1.24384009055464
  H          -0.43047805221268     -1.88820378463892      0.12282914126114
  H          -0.78153459702533      0.20609898568492      1.54522473244629
  O           2.46580189479712     -0.14390157128992     -0.07121847556328
  H           1.56732327071220      0.23516460029010     -0.02486304554440
