11
Coordinates from ORCA-job opt E -37.261531740032
  C      -0.618801      1.334404     -0.212158
  C      -0.828277      0.203394      0.455275
  H      -0.405182      2.263562      0.299254
  H      -0.674214      1.372947     -1.294060
  C      -1.138063     -1.124354     -0.160952
  H      -2.085677     -1.515375      0.217542
  H      -1.203268     -1.058619     -1.247002
  H      -0.368689     -1.857303      0.093893
  H      -0.772243      0.221979      1.540084
  O       2.430528     -0.264830     -0.005321
  H       1.575897      0.210787     -0.060132
11
Coordinates from ORCA-job opt E -37.261611157404
  C      -0.619152      1.328994     -0.212127
  C      -0.827152      0.201585      0.454980
  H      -0.406007      2.258427      0.299700
  H      -0.675038      1.365481     -1.294255
  C      -1.136090     -1.120832     -0.160976
  H      -2.082166     -1.508693      0.216461
  H      -1.201162     -1.053029     -1.245255
  H      -0.368734     -1.852746      0.093483
  H      -0.771020      0.221027      1.539503
  O       2.425110     -0.263359     -0.005604
  H       1.573421      0.209736     -0.059487
11
Coordinates from ORCA-job opt E -37.261621275028
  C      -0.619287      1.327079     -0.212202
  C      -0.826705      0.200811      0.455384
  H      -0.406132      2.256480      0.299661
  H      -0.675464      1.361941     -1.294388
  C      -1.135583     -1.119694     -0.161153
  H      -2.082270     -1.506294      0.215942
  H      -1.200313     -1.050467     -1.245289
  H      -0.368732     -1.851661      0.093413
  H      -0.770221      0.220958      1.539913
  O       2.424517     -0.262367     -0.005986
  H       1.572203      0.209807     -0.058872
11
Coordinates from ORCA-job opt E -37.261623776024
  C      -0.619113      1.326007     -0.212276
  C      -0.826294      0.200226      0.456015
  H      -0.405613      2.255314      0.299549
  H      -0.675558      1.359218     -1.294476
  C      -1.135535     -1.119369     -0.161361
  H      -2.083040     -1.504797      0.215168
  H      -1.199606     -1.048855     -1.245453
  H      -0.369220     -1.851721      0.093505
  H      -0.769341      0.221071      1.540507
  O       2.424285     -0.260691     -0.006682
  H       1.571046      0.210189     -0.058074
11
Coordinates from ORCA-job opt E -37.261629315986
  C      -0.618347      1.324426     -0.212353
  C      -0.825431      0.199171      0.457291
  H      -0.403763      2.253510      0.299301
  H      -0.675288      1.354552     -1.294551
  C      -1.135892     -1.119420     -0.161689
  H      -2.085179     -1.502379      0.213234
  H      -1.198060     -1.046641     -1.245714
  H      -0.371057     -1.852975      0.094070
  H      -0.767510      0.221242      1.541677
  O       2.424015     -0.256209     -0.008680
  H       1.568523      0.211316     -0.056164
11
Coordinates from ORCA-job opt E -37.261633005395
  C      -0.617126      1.323245     -0.212313
  C      -0.824547      0.198195      0.458282
  H      -0.401115      2.252067      0.299101
  H      -0.674421      1.351064     -1.294499
  C      -1.136654     -1.120005     -0.161795
  H      -2.087832     -1.500397      0.211048
  H      -1.196292     -1.045661     -1.245841
  H      -0.373816     -1.855216      0.095266
  H      -0.765781      0.221053      1.542555
  O       2.423878     -0.250535     -0.011420
  H       1.565717      0.212783     -0.053960
11
Coordinates from ORCA-job opt E -37.261644998372
  C      -0.614210      1.321293     -0.212074
  C      -0.822896      0.196352      0.459519
  H      -0.395215      2.249585      0.298818
  H      -0.671879      1.346414     -1.294233
  C      -1.138549     -1.121534     -0.161616
  H      -2.093412     -1.496987      0.206773
  H      -1.192659     -1.045626     -1.245838
  H      -0.380243     -1.860430      0.098547
  H      -0.762892      0.219875      1.543653
  O       2.423841     -0.238200     -0.017616
  H       1.560124      0.215850     -0.049511
11
Coordinates from ORCA-job opt E -37.261656852411
  C      -0.609952      1.318913     -0.211610
  C      -0.820938      0.193954      0.460282
  H      -0.387135      2.246509      0.298601
  H      -0.667686      1.342935     -1.293742
  C      -1.141303     -1.123614     -0.160970
  H      -2.100803     -1.492830      0.201445
  H      -1.187925     -1.047638     -1.245552
  H      -0.389446     -1.867558      0.103849
  H      -0.759973      0.217298      1.544334
  O       2.424128     -0.221118     -0.026442
  H       1.553045      0.219740     -0.043772
11
Coordinates from ORCA-job opt E -37.261669591942
  C      -0.604990      1.316333     -0.210959
  C      -0.819167      0.191369      0.460154
  H      -0.378380      2.243266      0.298694
  H      -0.662282      1.342076     -1.293106
  C      -1.144480     -1.125753     -0.159941
  H      -2.108706     -1.488485      0.196186
  H      -1.183098     -1.052176     -1.245046
  H      -0.400012     -1.875111      0.110636
  H      -0.758023      0.213422      1.544258
  O       2.425033     -0.201968     -0.036617
  H       1.546117      0.223619     -0.037836
11
Coordinates from ORCA-job opt E -37.261678281061
  C      -0.601614      1.314309     -0.210358
  C      -0.818516      0.189700      0.459067
  H      -0.373130      2.241049      0.299401
  H      -0.658080      1.344120     -1.292607
  C      -1.146617     -1.126822     -0.159142
  H      -2.113650     -1.485365      0.193493
  H      -1.180523     -1.057507     -1.244735
  H      -0.407164     -1.879352      0.116087
  H      -0.758272      0.209968      1.543385
  O       2.426687     -0.189393     -0.043773
  H       1.542890      0.225884     -0.034394
11
Coordinates from ORCA-job opt E -37.261681868968
  C      -0.600288      1.312943     -0.210097
  C      -0.818715      0.188857      0.458360
  H      -0.371671      2.239561      0.300167
  H      -0.656055      1.345457     -1.292381
  C      -1.147519     -1.126940     -0.159017
  H      -2.115643     -1.483410      0.192904
  H      -1.180189     -1.060419     -1.244822
  H      -0.409985     -1.880313      0.118686
  H      -0.759470      0.208388      1.542835
  O       2.428657     -0.184235     -0.047019
  H       1.542889      0.226701     -0.033192
11
Coordinates from ORCA-job opt E -37.261683877234
  C      -0.598911      1.311493     -0.209978
  C      -0.818985      0.187814      0.458263
  H      -0.370233      2.237741      0.300819
  H      -0.653984      1.345348     -1.292235
  C      -1.148631     -1.127233     -0.159099
  H      -2.117974     -1.481304      0.192137
  H      -1.180195     -1.062270     -1.244999
  H      -0.412887     -1.881470      0.120857
  H      -0.760623      0.207309      1.542777
  O       2.431202     -0.178434     -0.050390
  H       1.543232      0.227599     -0.031728
11
Coordinates from ORCA-job opt E -37.261688030447
  C      -0.597150      1.309628     -0.209872
  C      -0.819781      0.186495      0.458353
  H      -0.368781      2.235418      0.301952
  H      -0.651034      1.344558     -1.292123
  C      -1.150481     -1.127872     -0.159363
  H      -2.121209     -1.478897      0.191436
  H      -1.181142     -1.064330     -1.245308
  H      -0.416717     -1.882998      0.123202
  H      -0.762956      0.206473      1.542918
  O       2.436026     -0.170709     -0.054868
  H       1.545236      0.228824     -0.029904
11
Coordinates from ORCA-job opt E -37.261688899478
  C      -0.595775      1.308228     -0.209776
  C      -0.820965      0.185552      0.458533
  H      -0.368062      2.233675      0.303067
  H      -0.648291      1.343355     -1.292060
  C      -1.152495     -1.128633     -0.159587
  H      -2.123989     -1.477594      0.191303
  H      -1.182926     -1.065564     -1.245510
  H      -0.419897     -1.884294      0.124452
  H      -0.765931      0.206328      1.543144
  O       2.441644     -0.164383     -0.058580
  H       1.548698      0.229922     -0.028564
11
Coordinates from ORCA-job opt E -37.261692045152
  C      -0.594456      1.306943     -0.209605
  C      -0.822924      0.184767      0.458746
  H      -0.367830      2.232118      0.304277
  H      -0.644927      1.341533     -1.291969
  C      -1.155286     -1.129608     -0.159649
  H      -2.127034     -1.477304      0.191784
  H      -1.185983     -1.066229     -1.245504
  H      -0.423295     -1.885668      0.124824
  H      -0.770531      0.206639      1.543435
  O       2.449621     -0.157832     -0.062530
  H       1.554655      0.231233     -0.027386
11
Coordinates from ORCA-job opt E -37.261694526995
  C      -0.593590      1.306099     -0.209361
  C      -0.824834      0.184320      0.458990
  H      -0.367732      2.231234      0.304807
  H      -0.642035      1.339525     -1.291830
  C      -1.157889     -1.130302     -0.159347
  H      -2.129401     -1.478083      0.192443
  H      -1.188808     -1.065896     -1.245136
  H      -0.425924     -1.886743      0.124235
  H      -0.774928      0.206960      1.543771
  O       2.456724     -0.152938     -0.065549
  H       1.560430      0.232416     -0.026601
11
Coordinates from ORCA-job opt E -37.261696109237
  C      -0.593013      1.305408     -0.209028
  C      -0.826391      0.184021      0.459316
  H      -0.367265      2.230748      0.304646
  H      -0.639631      1.337546     -1.291625
  C      -1.160083     -1.130605     -0.158785
  H      -2.131262     -1.479234      0.192839
  H      -1.190810     -1.065125     -1.244560
  H      -0.428006     -1.887526      0.123337
  H      -0.778533      0.206942      1.544210
  O       2.462118     -0.149102     -0.067961
  H       1.564886      0.233519     -0.025966
11
Coordinates from ORCA-job opt E -37.261694612711
  C      -0.592806      1.304881     -0.208735
  C      -0.827149      0.183846      0.459691
  H      -0.366542      2.230541      0.304101
  H      -0.638355      1.336158     -1.291423
  C      -1.161177     -1.130492     -0.158339
  H      -2.132212     -1.479941      0.192750
  H      -1.191453     -1.064472     -1.244142
  H      -0.429031     -1.887753      0.122749
  H      -0.780260      0.206662      1.544650
  O       2.464328     -0.147084     -0.069297
  H       1.566668      0.234247     -0.025582
11
Coordinates from ORCA-job opt E -37.261697425136
  C      -0.592280      1.304056     -0.208416
  C      -0.827688      0.183433      0.460237
  H      -0.365022      2.229909      0.303517
  H      -0.636804      1.334705     -1.291177
  C      -1.162206     -1.130411     -0.157993
  H      -2.133525     -1.480018      0.192123
  H      -1.191577     -1.064239     -1.243840
  H      -0.430478     -1.888204      0.122829
  H      -0.781535      0.206099      1.545225
  O       2.465802     -0.143902     -0.071218
  H       1.567323      0.235165     -0.024863
