11
Coordinates from ORCA-job path_forw E -193.367752507417
  C           0.03367095440239      0.18191629090512     -0.08154467376038
  H          -0.04365760690884      0.45224536594078      0.96852295750748
  C           1.24786507641590      0.04886841509500     -0.62163419329281
  H           2.14643770482361      0.21084313534281     -0.03946593098299
  H           1.37350494797519     -0.21161653898593     -1.66720218779932
  C          -1.25643380426763     -0.01697693856528     -0.81680638317851
  H          -1.08090417845776     -0.27472726905850     -1.86221623613922
  H          -1.84461501443943     -0.81510797205264     -0.35670734284257
  H          -1.86354886166063      0.89101774824877     -0.78127820404908
  O           0.34793728487465     -3.10692651804015      0.27859499699141
  H           0.58584349724254     -2.17786971882994      0.10437119754601
