11
Coordinates from ORCA-job path_back E -193.410743110133
  C           0.03884562439077     -0.45549134880199      0.04943637895289
  H          -0.09371794167881      0.10314850946782      0.98504005678356
  C           1.28030296158780      0.00569200000733     -0.63243585513555
  H           2.24174895130200     -0.30140909052886     -0.24512630095470
  H           1.24357609524496      0.75953691534215     -1.40640067386862
  C          -1.20487940876575     -0.26090585928436     -0.81122380993833
  H          -1.11596160624072     -0.82502314152138     -1.74331663161942
  H          -2.08770930242368     -0.61008500730645     -0.27585473665275
  H          -1.33954542490568      0.79353177738445     -1.06273230263482
  O           0.16378135748042     -1.81270466717403      0.48594759122678
  H           0.39722269400868     -2.33796208758466     -0.28524571615903
