15
Coordinates from ORCA-job opt E -270.710400171497
  C          -0.12296111819210      1.19750578472965     -0.18066736542922
  C          -0.81245607278347      0.36442290455795      0.90811689283988
  C          -0.94361433789667     -1.02716577681171      0.26030500764153
  C           0.25153481816105     -1.10165267737847     -0.63597419417143
  C           0.89921810068984      0.23564780808594     -0.80655695083251
  H          -0.85621478307907      1.48171136897561     -0.94201664056027
  H           0.35744802023113      2.10346183275994      0.18862717909497
  H          -1.76905127881901      0.78079788702453      1.22490989749019
  H          -0.17273503991663      0.30112130568379      1.79333030056283
  H          -0.98854239838157     -1.84194242328895      0.98825740313640
  H          -1.87284828314573     -1.08570376986085     -0.32547056679395
  H           0.60925383687477     -2.00231253157442     -1.11503022965262
  H           1.10891068558707      0.48253173141231     -1.84894947225288
  O           2.18758817398211      0.30284157999535     -0.16555026825090
  H           2.12447167668828     -0.19126502431069      0.65666800717798
