11
Coordinates from ORCA-job opt E -193.362689916751
  C           0.01958405214549     -0.06237691496588     -0.02811412328536
  H          -0.05848949952846      0.12577063309499      1.03580417712334
  C           1.24083719743828     -0.02544573677370     -0.59789029295559
  H           2.13579188289278      0.07645782965958     -0.00017851027725
  H           1.35834796169830     -0.13357001944964     -1.67037552529606
  C          -1.26254665084522     -0.08382846237612     -0.79926366668986
  H          -1.09284867513789     -0.36220698716145     -1.84041866191957
  H          -1.96268833336576     -0.78946599480585     -0.35403606142708
  H          -1.72355768414435      0.90770227457735     -0.77967620173784
  O           0.25530179656501     -2.09793052576775      0.46498531269043
  H           0.67514995228183     -2.43510909603152     -0.33947444622514
