15
Coordinates from ORCA-job opt E -270.660502848500
  C       1.899717      1.401073      0.000000
  C       0.669579      2.266624      0.353369
  C      -0.560215      1.401786     -0.002925
  C       0.000000      0.000000      0.000000
  C       1.338014      0.000000      0.000000
  H       2.298819      1.641643     -0.991680
  H       2.717958      1.531749      0.711488
  H       0.670367      3.228969     -0.158237
  H       0.670729      2.461945      1.427320
  H      -1.383081      1.534072      0.703165
  H      -0.955206      1.641366     -0.996571
  H      -0.618709     -0.888046     -0.049439
  H       1.955921     -0.888725     -0.050651
  O       1.398768     -0.548904      2.034288
  H       0.687675      0.002187      2.391727
15
Coordinates from ORCA-job opt E -270.661554756166
  C       1.895991      1.396987     -0.009755
  C       0.672128      2.255616      0.369546
  C      -0.556562      1.400139     -0.011390
  C      -0.001630     -0.002486     -0.013037
  C       1.340348     -0.002525      0.007871
  H       2.260952      1.636448     -1.013718
  H       2.733636      1.523565      0.676412
  H       0.671234      3.231437     -0.115040
  H       0.675076      2.421745      1.448070
  H      -1.392410      1.529826      0.679803
  H      -0.929987      1.653384     -1.010894
  H      -0.616478     -0.892045     -0.071124
  H       1.956893     -0.886500     -0.072149
  O       1.405854     -0.504978      2.077778
  H       0.675290      0.025125      2.429483
15
Coordinates from ORCA-job opt E -270.661849921348
  C       1.909473      1.396375     -0.025750
  C       0.684594      2.246028      0.371506
  C      -0.546989      1.385561      0.008499
  C       0.016036     -0.010057     -0.032464
  C       1.360528     -0.004141     -0.006177
  H       2.260609      1.637358     -1.036222
  H       2.749910      1.525090      0.659107
  H       0.670321      3.224936     -0.105247
  H       0.706533      2.407307      1.451567
  H      -1.362582      1.493836      0.728581
  H      -0.960648      1.656704     -0.969889
  H      -0.590706     -0.904243     -0.091584
  H       1.981318     -0.883097     -0.103131
  O       1.325124     -0.461927      2.102172
  H       0.586815      0.076008      2.420887
15
Coordinates from ORCA-job opt E -270.662013157615
  C       1.896888      1.392456     -0.017319
  C       0.676479      2.244397      0.384820
  C      -0.550268      1.394276     -0.009386
  C       0.002785     -0.007013     -0.023409
  C       1.348180     -0.010376      0.012158
  H       2.235331      1.632064     -1.032261
  H       2.745205      1.519952      0.653622
  H       0.674803      3.231186     -0.079537
  H       0.682923      2.385535      1.467620
  H      -1.395660      1.521091      0.670786
  H      -0.913468      1.651710     -1.012059
  H      -0.612016     -0.894654     -0.091305
  H       1.959177     -0.889847     -0.127323
  O       1.403244     -0.442793      2.130806
  H       0.636734      0.057754      2.444642
15
Coordinates from ORCA-job opt E -270.662058951928
  C       1.898460      1.391584     -0.021146
  C       0.677795      2.242349      0.383573
  C      -0.550405      1.393593     -0.009688
  C       0.002175     -0.007237     -0.028020
  C       1.347813     -0.009697      0.007224
  H       2.238179      1.631177     -1.035803
  H       2.745014      1.517757      0.653953
  H       0.674251      3.230374     -0.076405
  H       0.688529      2.380405      1.466899
  H      -1.392370      1.517595      0.675791
  H      -0.920161      1.658405     -1.007750
  H      -0.611539     -0.896255     -0.093915
  H       1.961578     -0.890159     -0.117264
  O       1.409483     -0.421393      2.131767
  H       0.621535      0.047241      2.442638
15
Coordinates from ORCA-job opt E -270.662130999938
  C       1.898833      1.390630     -0.019564
  C       0.678454      2.246131      0.377100
  C      -0.552061      1.397925     -0.010265
  C      -0.001166     -0.003202     -0.030476
  C       1.344886     -0.009370      0.010114
  H       2.244919      1.627245     -1.032564
  H       2.740520      1.515367      0.660957
  H       0.677743      3.229693     -0.092926
  H       0.687186      2.392149      1.458903
  H      -1.389708      1.521465      0.680562
  H      -0.928341      1.660767     -1.006252
  H      -0.618226     -0.889890     -0.103181
  H       1.955137     -0.891902     -0.112403
  O       1.450933     -0.375178      2.141516
  H       0.601228     -0.026092      2.450333
15
Coordinates from ORCA-job opt E -270.662251904026
  C       1.898447      1.393755     -0.030846
  C       0.681216      2.246156      0.379154
  C      -0.549560      1.403300     -0.015488
  C      -0.001457      0.000715     -0.022226
  C       1.345733     -0.006275      0.015496
  H       2.227524      1.622662     -1.051588
  H       2.749279      1.526102      0.637255
  H       0.680281      3.235911     -0.077398
  H       0.694180      2.372616      1.463851
  H      -1.394037      1.534274      0.665495
  H      -0.913739      1.662755     -1.016983
  H      -0.618670     -0.886383     -0.087328
  H       1.955600     -0.890643     -0.096257
  O       1.468181     -0.316104      2.155530
  H       0.567358     -0.113103      2.453185
15
Coordinates from ORCA-job opt E -270.662398164888
  C       1.902209      1.397334     -0.031877
  C       0.685095      2.254598      0.362740
  C      -0.549459      1.410696     -0.013184
  C      -0.002981      0.010845     -0.016074
  C       1.345168      0.002612      0.024734
  H       2.241539      1.617135     -1.051119
  H       2.748957      1.531894      0.639971
  H       0.684323      3.235129     -0.113798
  H       0.693667      2.390484      1.446213
  H      -1.383266      1.543629      0.680545
  H      -0.929207      1.661883     -1.011116
  H      -0.622909     -0.875366     -0.079526
  H       1.951626     -0.883085     -0.083491
  O       1.478819     -0.248771      2.169866
  H       0.546754     -0.263278      2.447970
15
Coordinates from ORCA-job opt E -270.662695357898
  C       1.901757      1.403907     -0.038579
  C       0.687647      2.267810      0.357311
  C      -0.545919      1.416804     -0.010886
  C      -0.000247      0.013504     -0.002487
  C       1.348275      0.004150      0.033145
  H       2.228914      1.609989     -1.064682
  H       2.755605      1.549016      0.622824
  H       0.685666      3.244786     -0.126312
  H       0.707389      2.419447      1.437064
  H      -1.381631      1.558053      0.678547
  H      -0.922269      1.658763     -1.012463
  H      -0.620274     -0.872861     -0.060176
  H       1.958494     -0.881058     -0.067226
  O       1.451135     -0.204942      2.186411
  H       0.535795     -0.401630      2.439364
15
Coordinates from ORCA-job opt E -270.662840918229
  C       1.905501      1.405810     -0.040429
  C       0.691598      2.272455      0.347234
  C      -0.545408      1.419788     -0.006385
  C       0.001187      0.019001      0.002982
  C       1.348933      0.009968      0.036194
  H       2.239247      1.607928     -1.065165
  H       2.757561      1.551209      0.622967
  H       0.687695      3.243731     -0.147706
  H       0.711608      2.430689      1.425834
  H      -1.372401      1.561864      0.693287
  H      -0.933754      1.657189     -1.004649
  H      -0.617284     -0.868833     -0.048247
  H       1.956755     -0.876510     -0.059326
  O       1.420477     -0.151396      2.199755
  H       0.538622     -0.497155      2.415509
15
Coordinates from ORCA-job opt E -270.662957138155
  C       1.907110      1.406909     -0.040128
  C       0.693372      2.276441      0.340355
  C      -0.544693      1.422346     -0.003066
  C       0.001519      0.022209      0.006446
  C       1.349185      0.012485      0.038658
  H       2.246443      1.604884     -1.063609
  H       2.756929      1.552795      0.626129
  H       0.689656      3.242112     -0.165578
  H       0.712157      2.444156      1.417480
  H      -1.365927      1.564513      0.703204
  H      -0.941015      1.656581     -0.998816
  H      -0.619388     -0.864263     -0.043093
  H       1.958457     -0.873523     -0.053931
  O       1.394029     -0.121630      2.204880
  H       0.552502     -0.560276      2.402924
15
Coordinates from ORCA-job opt E -270.663033483433
  C       1.907677      1.407479     -0.040120
  C       0.694352      2.279208      0.337220
  C      -0.544307      1.424099     -0.002029
  C       0.001369      0.023882      0.008919
  C       1.348873      0.013444      0.041053
  H       2.248388      1.602694     -1.063612
  H       2.757065      1.554063      0.626630
  H       0.690914      3.242546     -0.173128
  H       0.713533      2.451713      1.413403
  H      -1.363585      1.567223      0.706203
  H      -0.943022      1.656405     -0.997276
  H      -0.620225     -0.862203     -0.039108
  H       1.958237     -0.872866     -0.049376
  O       1.374755     -0.101190      2.207706
  H       0.566313     -0.600757      2.395370
15
Coordinates from ORCA-job opt E -270.663071433877
  C       1.908191      1.407721     -0.039707
  C       0.694968      2.280979      0.334598
  C      -0.544244      1.425275     -0.001137
  C       0.001171      0.025226      0.010325
  C       1.348502      0.014214      0.042396
  H       2.251235      1.601453     -1.062659
  H       2.756515      1.554251      0.628471
  H       0.691753      3.242283     -0.179585
  H       0.713967      2.457424      1.410049
  H      -1.361657      1.568759      0.709112
  H      -0.945407      1.656365     -0.995657
  H      -0.620930     -0.860583     -0.036677
  H       1.957853     -0.872370     -0.046798
  O       1.361041     -0.088363      2.208710
  H       0.577378     -0.626897      2.390413
15
Coordinates from ORCA-job opt E -270.663112717158
  C       1.908351      1.407913     -0.039452
  C       0.695294      2.282324      0.333000
  C      -0.544184      1.426296     -0.000914
  C       0.000869      0.026196      0.011466
  C       1.348096      0.014675      0.043621
  H       2.252450      1.600381     -1.062249
  H       2.756195      1.554631      0.629325
  H       0.692434      3.242441     -0.183404
  H       0.714177      2.461254      1.407960
  H      -1.360809      1.570269      0.710081
  H      -0.946231      1.656490     -0.995282
  H      -0.621669     -0.859362     -0.034686
  H       1.957434     -0.872139     -0.044527
  O       1.351112     -0.079734      2.209416
  H       0.586818     -0.645895      2.387500
15
Coordinates from ORCA-job opt E -270.663138305714
  C       1.908588      1.408019     -0.039143
  C       0.695641      2.283664      0.331358
  C      -0.544220      1.427189     -0.000539
  C       0.000575      0.027071      0.012489
  C       1.347655      0.015071      0.044436
  H       2.254142      1.599526     -1.061614
  H       2.755744      1.554502      0.630597
  H       0.693067      3.242558     -0.187324
  H       0.714575      2.465358      1.405760
  H      -1.359889      1.571569      0.711427
  H      -0.947417      1.656527     -0.994640
  H      -0.622199     -0.858341     -0.032913
  H       1.956930     -0.872007     -0.042645
  O       1.340598     -0.070870      2.210117
  H       0.596547     -0.664096      2.384490
15
Coordinates from ORCA-job opt E -270.663169672729
  C       1.908730      1.408151     -0.038686
  C       0.695917      2.285038      0.329689
  C      -0.544296      1.428285     -0.000440
  C       0.000086      0.028086      0.013664
  C       1.347024      0.015548      0.045492
  H       2.255764      1.598599     -1.060825
  H       2.755158      1.554614      0.632027
  H       0.693829      3.242676     -0.191311
  H       0.714573      2.469357      1.403582
  H      -1.359230      1.573304      0.712172
  H      -0.948300      1.656471     -0.994472
  H      -0.623104     -0.857083     -0.030889
  H       1.956110     -0.871867     -0.040667
  O       1.330399     -0.062947      2.210862
  H       0.607677     -0.682493      2.381656
15
Coordinates from ORCA-job opt E -270.663199798656
  C       1.908913      1.408285     -0.038353
  C       0.696224      2.286424      0.328071
  C      -0.544289      1.429219     -0.000086
  C      -0.000259      0.028904      0.014775
  C       1.346632      0.015906      0.046445
  H       2.257333      1.597668     -1.060211
  H       2.754630      1.554649      0.633317
  H       0.694435      3.242797     -0.195265
  H       0.714983      2.473668      1.401382
  H      -1.358358      1.574792      0.713355
  H      -0.949296      1.656602     -0.993876
  H      -0.623720     -0.856111     -0.028953
  H       1.955728     -0.871730     -0.038640
  O       1.318917     -0.055056      2.211226
  H       0.618463     -0.700277      2.378666
15
Coordinates from ORCA-job opt E -270.663229619523
  C       1.909037      1.408480     -0.038067
  C       0.696527      2.287845      0.326749
  C      -0.544238      1.430173      0.000061
  C      -0.000601      0.029685      0.016175
  C       1.346210      0.016216      0.047682
  H       2.258140      1.596700     -1.059895
  H       2.754416      1.555060      0.634031
  H       0.695148      3.243195     -0.198420
  H       0.715462      2.477834      1.399474
  H      -1.357886      1.576495      0.713778
  H      -0.949552      1.656522     -0.993837
  H      -0.624318     -0.855169     -0.026418
  H       1.955123     -0.871769     -0.036425
  O       1.307136     -0.047579      2.211705
  H       0.629732     -0.717948      2.375261
15
Coordinates from ORCA-job opt E -270.663256239727
  C       1.909383      1.408566     -0.037350
  C       0.696864      2.289270      0.324812
  C      -0.544314      1.431071      0.000670
  C      -0.000958      0.030577      0.017334
  C       1.345800      0.016658      0.048725
  H       2.260579      1.595773     -1.058624
  H       2.753672      1.554961      0.636195
  H       0.695731      3.242920     -0.203432
  H       0.715679      2.483007      1.396804
  H      -1.356704      1.577814      0.715694
  H      -0.951278      1.656480     -0.992753
  H      -0.624983     -0.854092     -0.024369
  H       1.954583     -0.871619     -0.034665
  O       1.294939     -0.040663      2.211639
  H       0.641342     -0.734984      2.371174
15
Coordinates from ORCA-job opt E -270.663282697428
  C       1.909503      1.408760     -0.036997
  C       0.697191      2.290740      0.323465
  C      -0.544202      1.431993      0.000959
  C      -0.001279      0.031275      0.018763
  C       1.345495      0.016963      0.050160
  H       2.261439      1.594551     -1.058264
  H       2.753419      1.555430      0.636982
  H       0.696411      3.243279     -0.206786
  H       0.716324      2.487453      1.394838
  H      -1.356003      1.579356      0.716442
  H      -0.951754      1.656412     -0.992442
  H      -0.625613     -0.853186     -0.021859
  H       1.954281     -0.871527     -0.032217
  O       1.281914     -0.033914      2.211670
  H       0.653209     -0.751847      2.367140
15
Coordinates from ORCA-job opt E -270.663308017147
  C       1.909685      1.408950     -0.036117
  C       0.697436      2.292529      0.321630
  C      -0.544272      1.433000      0.001434
  C      -0.001708      0.032122      0.020270
  C       1.345013      0.017352      0.051913
  H       2.263130      1.593382     -1.057093
  H       2.752840      1.555765      0.638800
  H       0.697097      3.243316     -0.211750
  H       0.716535      2.493615      1.392097
  H      -1.355191      1.581075      0.717733
  H      -0.952890      1.656271     -0.991774
  H      -0.626337     -0.852140     -0.019464
  H       1.953630     -0.871463     -0.029855
  O       1.269465     -0.028915      2.211599
  H       0.665904     -0.769121      2.362431
15
Coordinates from ORCA-job opt E -270.663347459650
  C       1.910166      1.409235     -0.035403
  C       0.698092      2.294671      0.319295
  C      -0.544064      1.434153      0.002491
  C      -0.001940      0.033067      0.022540
  C       1.344887      0.017793      0.053973
  H       2.265191      1.591911     -1.056131
  H       2.752371      1.556466      0.640631
  H       0.697967      3.243290     -0.217921
  H       0.717798      2.501265      1.388626
  H      -1.353501      1.583055      0.720214
  H      -0.954449      1.656034     -0.990307
  H      -0.626814     -0.851033     -0.015155
  H       1.953429     -0.871355     -0.026369
  O       1.247510     -0.020067      2.210894
  H       0.683690     -0.792746      2.354476
15
Coordinates from ORCA-job opt E -270.663376022395
  C       1.910623      1.409773     -0.032903
  C       0.698708      2.298999      0.315193
  C      -0.544014      1.436327      0.004008
  C      -0.002840      0.034747      0.026655
  C       1.344031      0.018728      0.059111
  H       2.268638      1.588508     -1.053263
  H       2.751244      1.557987      0.644939
  H       0.699585      3.243198     -0.229802
  H       0.718521      2.516663      1.382135
  H      -1.351279      1.586975      0.723682
  H      -0.957064      1.655264     -0.988297
  H      -0.628354     -0.848879     -0.009100
  H       1.952307     -0.871061     -0.020543
  O       1.216140     -0.012541      2.209099
  H       0.714091     -0.828948      2.340939
15
Coordinates from ORCA-job opt E -270.663384022512
  C       1.911029      1.410300     -0.030909
  C       0.699349      2.302578      0.311476
  C      -0.544043      1.438461      0.005246
  C      -0.003598      0.036609      0.031181
  C       1.343404      0.019747      0.064094
  H       2.271633      1.585721     -1.050907
  H       2.750158      1.559515      0.648485
  H       0.701010      3.242981     -0.239981
  H       0.719386      2.529807      1.376379
  H      -1.349657      1.590971      0.726236
  H      -0.958733      1.654449     -0.987003
  H      -0.629560     -0.846590     -0.001137
  H       1.951232     -0.870735     -0.013890
  O       1.184580     -0.007345      2.206587
  H       0.744144     -0.860729      2.325998
15
Coordinates from ORCA-job opt E -270.663385657394
  C       1.910954      1.410276     -0.031154
  C       0.699241      2.301775      0.312070
  C      -0.544029      1.438126      0.004966
  C      -0.003411      0.036532      0.030616
  C       1.343539      0.019872      0.064032
  H       2.270948      1.585970     -1.051319
  H       2.750455      1.559579      0.647724
  H       0.700690      3.242849     -0.238273
  H       0.718910      2.526823      1.377495
  H      -1.349964      1.590363      0.725698
  H      -0.958410      1.654472     -0.987348
  H      -0.629255     -0.846764     -0.002108
  H       1.951381     -0.870597     -0.014661
  O       1.191612     -0.009195      2.206464
  H       0.737675     -0.854343      2.327651
15
Coordinates from ORCA-job opt E -270.663383567243
  C       1.910696      1.410401     -0.031461
  C       0.699204      2.301734      0.312396
  C      -0.543951      1.438314      0.004495
  C      -0.003502      0.036638      0.030755
  C       1.343501      0.019940      0.064514
  H       2.269626      1.585785     -1.052028
  H       2.750884      1.560123      0.646422
  H       0.700792      3.243296     -0.237103
  H       0.718852      2.525596      1.378027
  H      -1.350390      1.590793      0.724583
  H      -0.957399      1.654596     -0.988235
  H      -0.629409     -0.846618     -0.001803
  H       1.951569     -0.870382     -0.013591
  O       1.192161     -0.009838      2.206779
  H       0.737701     -0.854639      2.328103
